<routes>
<vType id="Human" color="red" guiShape="passenger/sedan"/>
<vType id="AV" color="yellow"/>
<route id="0_0_0" edges="
315358244 379897807 137685155#0 129379968 -201950263#10 -201950263#6 -201950259#6 -201950259#3 -26677213#5 136436468#1 -201201945#1 -201201945#0 -201201945#0.78 -174800513 -201238718#1 -201238724 24634510#0 24634510#1 24634510#6 204588664#0 -23436553#2 -23436553#1 -22690205#1 233675413#4 -25145011#2 -25145011#0 -653473569#2 -653473569#1 -25149001#5 -25149001#4
" />
<route id="0_0_1" edges="
315358244 379897807 137685155#0 129379968 -201950263#10 -201950263#6 -201950259#6 -201950259#3 -26677213#5 136436468#1 -201201945#1 -201201945#0 -201201945#0.78 -174800513 -201238718#1 -201238724 24634510#0 24634510#1 24634510#6 204588664#0 -23436553#2 -23436553#1 -22690205#1 233675413#4 -25145011#2 -25145012#5 22716069#2 -653473569#1 -25149001#5 -25149001#4
" />
<route id="0_0_2" edges="
315358244 379897807 137685155#0 129379968 -201950263#10 26677542#0 26677542#1 -26677214#5 26677216#0 26677216#1 26677216#2 26677216#3 23166741#5 -174800513 -201238718#1 -201238724 24634510#0 24634510#1 24634510#6 204588664#0 -23436553#2 -23436553#1 -22690205#1 233675413#4 -25145011#2 -25145011#0 -653473569#2 -653473569#1 -25149001#5 -25149001#4
" />
<route id="0_0_3" edges="
315358244 379897807 137685155#0 129379968 -201950263#10 26677542#0 26677542#1 -26677214#5 26677216#0 26677216#1 26677216#2 26677216#3 23166741#5 -174800513 -201238718#1 -201238724 24634510#0 24634510#1 24634510#6 204588664#0 -23436553#2 -23436553#1 -22690205#1 233675413#4 -25145011#2 -25145012#5 22716069#2 -653473569#1 -25149001#5 -25149001#4
" />
<route id="0_2_0" edges="
315358244 379897807 137685155#0 129379968 -201950263#10 26677542#0 26677542#1 -26677214#5 26677216#0 26677216#1 26677216#2 26677216#3 23166741#5 -174800513 -201238718#1 -201238718#0 -315392062#4 -24693977#1 -24693977#0 -32999434#1 32999110#0 402600768#0 402600768#1 51857517#0 51857517#0.33 51857517#1 51857518#1 32978638#0
" />
<route id="0_2_1" edges="
315358244 379897807 137685155#0 129379968 -201950263#10 -201950263#6 -201950259#6 -201950259#3 -26677213#5 136436468#1 -201201945#1 -201201945#0 -201201945#0.78 -174800513 -201238718#1 -201238718#0 -315392062#4 -24693977#1 -24693977#0 -32999434#1 32999110#0 402600768#0 402600768#1 51857517#0 51857517#0.33 51857517#1 51857518#1 32978638#0
" />
<route id="0_2_2" edges="
315358244 379897807 137685155#0 129379968 -201950263#10 -201950263#6 -201950259#6 -201950259#3 -26677213#5 136436468#1 -201201945#1 -201201945#0 -201201945#0.78 -174800513 201201950#0 -24634411 160314345#1 160314345#2 24634414#2 24634416 315358253#1 315358253#2 402600768#0 402600768#1 51857517#0 51857517#0.33 51857517#1 51857518#1 32978638#0
" />
<route id="0_2_3" edges="
315358244 379897807 137685155#0 129379968 -201950263#10 -201950263#6 -201950259#6 -201950259#3 -26677213#5 136436468#1 -201201945#1 -201201945#0 -201201945#0.78 -174800513 201201950#0 -24634411 -160314345#0 -315392062#4 -24693977#1 -24693977#0 -32999434#1 32999110#0 402600768#0 402600768#1 51857517#0 51857517#0.33 51857517#1 51857518#1 32978638#0
" />
<route id="0_3_0" edges="
315358244 379897807 137685155#0 129379921#0 129379921#1 129379920#0 129379920#1 315358246 129379922 315358252#0 129379918#0 129379925 315358242#0 315358242#1 315358242#2 315358242#3 315358251#1 136436466 386687235
" />
<route id="0_3_1" edges="
315358244 379897807 137685155#0 129379968 -201950263#10 26677542#0 -26677417#1 -26677417#0 26677416#2 26677416#3 26677416#4 40888351#3 129379925 315358242#0 315358242#1 315358242#2 315358242#3 315358251#1 136436466 386687235
" />
<route id="0_3_2" edges="
315358244 379897807 137685155#0 129379968 -201950263#10 26677542#0 26677542#1 201950250#0 201950250#1 -26677539 26677416#4 40888351#3 129379925 315358242#0 315358242#1 315358242#2 315358242#3 315358251#1 136436466 386687235
" />
<route id="0_3_3" edges="
315358244 164078530 379897806 315358250#0 315358250#1 129379921#0 129379921#1 129379920#0 129379920#1 315358246 129379922 315358252#0 129379918#0 129379925 315358242#0 315358242#1 315358242#2 315358242#3 315358251#1 136436466 386687235
" />
<route id="0_4_0" edges="
315358244 379897807 137685155#0 129379968 -201950263#10 -201950263#6 -25117391#2 -25117391#1 315358257#0 315358257#0.43 -612075153#1 -612075153#0 399835085#0 399835085#1
" />
<route id="0_4_1" edges="
315358244 164078530 379897806 315358250#0 315358250#1 129379968 -201950263#10 -201950263#6 -25117391#2 -25117391#1 315358257#0 315358257#0.43 -612075153#1 -612075153#0 399835085#0 399835085#1
" />
<route id="0_4_2" edges="
315358244 379897807 137685155#0 129379968 -201950263#10 -201950263#6 -25117391#2 -25117391#1 -201089420#1 -201201945#8 -40888359 201089420#0 315358257#0 315358257#0.43 -612075153#1 -612075153#0 399835085#0 399835085#1
" />
<route id="0_4_3" edges="
315358244 379897807 137685155#0 129379968 -201950263#10 -201950263#6 -25117391#2 -25117391#1 315358257#0 315358257#0.43 -315358255#4 -286646456#2 224892361#1 224892361#2 224892339#0 315358255#0 -612075153#1 -612075153#0 399835085#0 399835085#1
" />
<route id="0_5_0" edges="
315358244 379897807 137685155#0 129379968 -201950263#10 26677542#0 26677542#1 -26677214#5 26677216#0 26677216#1 26677216#2 26677216#3 23166741#5 -174800513 -201238718#1 -201238718#0 -315392062#4 -24693977#1 -24693977#0 -32999434#1 32999110#0 402600768#0 402600768#1 51857517#0 51857517#0.33 51857517#1 51857516#1 -266565295#5
" />
<route id="0_5_1" edges="
315358244 379897807 137685155#0 129379968 -201950263#10 -201950263#6 -201950259#6 -201950259#3 -26677213#5 136436468#1 -201201945#1 -201201945#0 -201201945#0.78 -174800513 -201238718#1 -201238718#0 -315392062#4 -24693977#1 -24693977#0 -32999434#1 32999110#0 402600768#0 402600768#1 51857517#0 51857517#0.33 51857517#1 51857516#1 -266565295#5
" />
<route id="0_5_2" edges="
315358244 379897807 137685155#0 129379968 -201950263#10 -201950263#6 -201950259#6 -201950259#3 -26677213#5 136436468#1 -201201945#1 -201201945#0 -201201945#0.78 -174800513 201201950#0 -24634411 160314345#1 160314345#2 24634414#2 24634416 315358253#1 315358253#2 402600768#0 402600768#1 51857517#0 51857517#0.33 51857517#1 51857516#1 -266565295#5
" />
<route id="0_5_3" edges="
315358244 379897807 137685155#0 129379968 -201950263#10 -201950263#6 -201950259#6 -201950259#3 -26677213#5 136436468#1 -201201945#1 -201201945#0 -201201945#0.78 -174800513 201201950#0 -24634411 -160314345#0 -315392062#4 -24693977#1 -24693977#0 -32999434#1 32999110#0 402600768#0 402600768#1 51857517#0 51857517#0.33 51857517#1 51857516#1 -266565295#5
" />
<route id="0_12_0" edges="
315358244 379897807 137685155#0 129379921#0 129379921#1 129379920#0 129379920#1 315358246 129379922 315358252#0 447569997#0 447569997#1
" />
<route id="0_12_1" edges="
315358244 164078530 379897806 315358250#0 315358250#1 129379921#0 129379921#1 129379920#0 129379920#1 315358246 129379922 315358252#0 447569997#0 447569997#1
" />
<route id="0_12_2" edges="
315358244 379897807 137685155#0 129379968 -201950263#10 26677542#0 26677542#1 201950250#0 201950250#1 -26677539 26677416#4 40888351#3 -129379918#1 447569997#0 447569997#1
" />
<route id="0_12_3" edges="
315358244 379897807 137685155#0 129379968 -201950263#10 26677542#0 -26677417#1 -26677417#0 26677416#2 26677416#3 26677416#4 40888351#3 -129379918#1 447569997#0 447569997#1
" />
<route id="0_16_0" edges="
315358244 379897807 137685155#0 129379968 -201950263#10 26677542#0 26677542#1 -26677214#5 26677216#0 26677216#1 26677216#2 26677216#3 23166741#5 -174800513 -201238718#1 -201238724 24634510#0 24634510#1 24634510#6 204588664#0 -23436553#2 -23436553#1 -22690205#1 233675413#4 -25145011#2 -25145012#5 -25145012#4 -25187896 -25187895#0 28111977#10 -653473568#0 -18813598#8 -18813598#7 -18813598#6 -18813598#1 25122731#0 30482614 30482615#1
" />
<route id="0_16_1" edges="
315358244 379897807 137685155#0 129379968 -201950263#10 -201950263#6 -201950259#6 -201950259#3 -26677213#5 136436468#1 -201201945#1 -201201945#0 -201201945#0.78 -174800513 -201238718#1 -201238724 24634510#0 24634510#1 24634510#6 204588664#0 -23436553#2 -23436553#1 -22690205#1 233675413#4 -25145011#2 -25145011#0 -653473569#2 -653473569#1 -653473569#0 -653473568#1 -653473568#0 -18813598#8 -18813598#7 -18813598#6 -18813598#1 25122731#0 30482614 30482615#1
" />
<route id="0_16_2" edges="
315358244 379897807 137685155#0 129379968 -201950263#10 26677542#0 26677542#1 -26677214#5 26677216#0 26677216#1 26677216#2 26677216#3 23166741#5 -174800513 -201238718#1 -201238724 24634510#0 24634510#1 24634510#6 204588664#0 -23436553#2 -23436553#1 -22690205#1 233675413#4 -25145011#2 -25145011#0 -653473569#2 -653473569#1 -653473569#0 -653473568#1 -653473568#0 -18813598#8 -18813598#7 -18813598#6 -18813598#1 25122731#0 30482614 30482615#1
" />
<route id="0_16_3" edges="
315358244 379897807 137685155#0 129379968 -201950263#10 -201950263#6 -201950259#6 -201950259#3 -26677213#5 136436468#1 -201201945#1 -201201945#0 -201201945#0.78 -174800513 -201238718#1 -201238724 24634510#0 24634510#1 24634510#6 204588664#0 -23436553#2 -23436553#1 -22690205#1 233675413#4 -25145011#2 -25145012#5 -25145012#4 -25187896 -25187895#0 28111977#10 -653473568#0 -18813598#8 -18813598#7 -18813598#6 -18813598#1 25122731#0 30482614 30482615#1
" />
<route id="0_21_0" edges="
315358244 379897807 137685155#0 129379968 -201950263#10 -201950263#6 -201950259#6 -201950259#3 -26677213#5 136436468#1 -201201945#1 -201201945#0 -201201945#0.78 -174800513 -201238718#1 -201238724
" />
<route id="0_21_1" edges="
315358244 379897807 137685155#0 129379968 -201950263#10 26677542#0 26677542#1 -26677214#5 26677216#0 26677216#1 26677216#2 26677216#3 23166741#5 -174800513 -201238718#1 -201238724
" />
<route id="0_21_2" edges="
315358244 164078530 379897806 315358250#0 315358250#1 129379968 -201950263#10 -201950263#6 -201950259#6 -201950259#3 -26677213#5 136436468#1 -201201945#1 -201201945#0 -201201945#0.78 -174800513 -201238718#1 -201238724
" />
<route id="0_21_3" edges="
315358244 379897807 137685155#0 129379968 -201950263#10 -201950263#6 -201950259#6 -201950259#3 -26677213#5 136436468#1 -201201945#1 -201201945#0 -201201945#0.78 -174800513 201201950#0 -24634411 -160314345#0 201238718#0 -201238724
" />
<route id="0_23_0" edges="
315358244 379897807 137685155#0 129379968 -201950263#10 26677542#0 26677542#1 201950250#0 -26677540#2 26677541
" />
<route id="0_23_1" edges="
315358244 164078530 379897806 315358250#0 315358250#1 129379968 -201950263#10 26677542#0 26677542#1 201950250#0 -26677540#2 26677541
" />
<route id="0_23_2" edges="
315358244 379897807 137685155#0 129379968 -201950263#10 26677542#0 -26677417#1 -26677417#0 26677416#2 26677540#0 26677540#1 26677541
" />
<route id="0_23_3" edges="
315358244 379897807 137685155#0 129379968 -201950263#10 26677542#0 -26677417#1 -26677417#0 26677416#2 26677416#3 26677539 -201950250#1 -26677540#2 26677541
" />
<route id="0_39_0" edges="
315358244 379897807 137685155#0 129379968 -201950263#10 -201950263#6 -201950259#6 -201950259#3 -26677213#5 136436468#1 -201201945#1 -201201945#0 -201201945#0.78 -174800513 -201238718#1 -201238718#0
" />
<route id="0_39_1" edges="
315358244 379897807 137685155#0 129379968 -201950263#10 26677542#0 26677542#1 -26677214#5 26677216#0 26677216#1 26677216#2 26677216#3 23166741#5 -174800513 -201238718#1 -201238718#0
" />
<route id="0_39_2" edges="
315358244 164078530 379897806 315358250#0 315358250#1 129379968 -201950263#10 -201950263#6 -201950259#6 -201950259#3 -26677213#5 136436468#1 -201201945#1 -201201945#0 -201201945#0.78 -174800513 -201238718#1 -201238718#0
" />
<route id="0_39_3" edges="
315358244 164078530 379897806 315358250#0 315358250#1 129379968 -201950263#10 26677542#0 26677542#1 -26677214#5 26677216#0 26677216#1 26677216#2 26677216#3 23166741#5 -174800513 -201238718#1 -201238718#0
" />
<route id="0_51_0" edges="
315358244 379897807 137685155#0 129379968 -201950263#10 26677542#0 26677542#1 -26677214#5 26677216#0 26677216#1 26677216#2 26677216#3 23166741#5
" />
<route id="0_51_1" edges="
315358244 164078530 379897806 315358250#0 315358250#1 129379968 -201950263#10 26677542#0 26677542#1 -26677214#5 26677216#0 26677216#1 26677216#2 26677216#3 23166741#5
" />
<route id="0_51_2" edges="
315358244 379897807 137685155#0 129379968 -201950263#10 -201950263#6 -201950259#6 -201950259#3 26677214#0 26677214#3 54169231#0 54169231#1 54169231#2 26677216#1 26677216#2 26677216#3 23166741#5
" />
<route id="0_51_3" edges="
315358244 379897807 137685155#0 129379968 -201950263#10 -201950263#6 -201950259#6 -201950259#3 26677214#0 26677214#3 26677214#4 26677216#0 26677216#1 26677216#2 26677216#3 23166741#5
" />
<route id="0_52_0" edges="
315358244 379897807 137685155#0 129379921#0 129379921#1 129379920#0 129379920#1 315358246 129379922 315358252#0 129379918#0 129379925 315358242#0 315358242#1 4942376
" />
<route id="0_52_1" edges="
315358244 379897807 137685155#0 129379968 -201950263#10 26677542#0 26677542#1 201950250#0 201950250#1 -26677539 26677416#4 40888351#3 129379925 315358242#0 315358242#1 4942376
" />
<route id="0_52_2" edges="
315358244 379897807 137685155#0 129379968 -201950263#10 26677542#0 -26677417#1 -26677417#0 26677416#2 26677416#3 26677416#4 40888351#3 129379925 315358242#0 315358242#1 4942376
" />
<route id="0_52_3" edges="
315358244 164078530 379897806 315358250#0 315358250#1 129379921#0 129379921#1 129379920#0 129379920#1 315358246 129379922 315358252#0 129379918#0 129379925 315358242#0 315358242#1 4942376
" />
<route id="0_53_0" edges="
315358244 379897807 137685155#0 129379968 -201950263#10 -201950263#6 -201950259#6 -201950259#3 -26677213#5 136436468#1 -201201945#1 -201201945#0 -201201945#0.78 -174800513 -201238718#1 -201238718#0 -160314346#1 24634506#0 24634506#1 24634506#2
" />
<route id="0_53_1" edges="
315358244 379897807 137685155#0 129379968 -201950263#10 26677542#0 26677542#1 -26677214#5 26677216#0 26677216#1 26677216#2 26677216#3 23166741#5 -174800513 -201238718#1 -201238718#0 -160314346#1 24634506#0 24634506#1 24634506#2
" />
<route id="0_53_2" edges="
315358244 379897807 137685155#0 129379968 -201950263#10 -201950263#6 -201950259#6 -201950259#3 -26677213#5 136436468#1 -201201945#1 -201201945#0 -201201945#0.78 -174800513 201201950#0 -24634411 -160314345#0 -160314346#1 24634506#0 24634506#1 24634506#2
" />
<route id="0_53_3" edges="
315358244 379897807 137685155#0 129379968 -201950263#10 26677542#0 26677542#1 -26677214#5 26677216#0 26677216#1 26677216#2 26677216#3 23166741#5 -174800513 201201950#0 -24634411 -160314345#0 -160314346#1 24634506#0 24634506#1 24634506#2
" />
<route id="0_59_0" edges="
315358244 379897807 137685155#0 129379968 -201950263#10 -201950263#6 -201950259#6 -201950259#3 -26677213#5 136436468#1 -201201945#1 -201201945#0 -201201945#0.78 -174800513 201201950#0 -24634411 -160314345#0
" />
<route id="0_59_1" edges="
315358244 379897807 137685155#0 129379968 -201950263#10 26677542#0 26677542#1 -26677214#5 26677216#0 26677216#1 26677216#2 26677216#3 23166741#5 -174800513 201201950#0 -24634411 -160314345#0
" />
<route id="0_59_2" edges="
315358244 164078530 379897806 315358250#0 315358250#1 129379968 -201950263#10 26677542#0 26677542#1 -26677214#5 26677216#0 26677216#1 26677216#2 26677216#3 23166741#5 -174800513 201201950#0 -24634411 -160314345#0
" />
<route id="0_59_3" edges="
315358244 164078530 379897806 315358250#0 315358250#1 129379968 -201950263#10 -201950263#6 -201950259#6 -201950259#3 -26677213#5 136436468#1 -201201945#1 -201201945#0 -201201945#0.78 -174800513 201201950#0 -24634411 -160314345#0
" />
<route id="0_61_0" edges="
315358244 379897807 137685155#0 129379968 -201950263#10 26677542#0 -26677417#1 -26677417#0 -26677416#1
" />
<route id="0_61_1" edges="
315358244 164078530 379897806 315358250#0 315358250#1 129379968 -201950263#10 26677542#0 -26677417#1 -26677417#0 -26677416#1
" />
<route id="0_61_2" edges="
315358244 379897807 137685155#0 129379968 -201950263#10 -201950263#6 -201950259#6 -201950259#3 26677214#0 26677214#3 54169231#0 54169231#1 54169231#2 -26677216#0 26677214#5 -26677542#1 -26677417#1 -26677417#0 -26677416#1
" />
<route id="0_61_3" edges="
315358244 164078530 379897806 315358250#0 315358250#1 129379968 -201950263#10 26677542#0 26677542#1 201950250#0 -26677540#2 26677541 26677540#1 26677540#2 -201950250#0 -26677542#1 -26677417#1 -26677417#0 -26677416#1
" />
<route id="0_62_0" edges="
315358244 379897807 137685155#0 129379968 -201950263#10 -201950263#6 -25117391#2 -25117391#1 -201089420#1 28319300#0
" />
<route id="0_62_1" edges="
315358244 164078530 379897806 315358250#0 315358250#1 129379968 -201950263#10 -201950263#6 -25117391#2 -25117391#1 -201089420#1 28319300#0
" />
<route id="0_62_2" edges="
315358244 379897807 137685155#0 129379968 -201950263#10 26677542#0 26677542#1 -26677214#5 -26677214#4 -26677214#3 -26677214#2 -26677213#5 136436468#1 201201945#2 201201945#3 201201945#7 -40888359 28319300#0
" />
<route id="0_62_3" edges="
315358244 379897807 137685155#0 129379968 -201950263#10 -201950263#6 -201950259#6 -201950259#3 -26677213#5 136436468#1 201201945#2 201201945#3 201201945#7 201201945#8 28319300#0
" />
<route id="0_72_0" edges="
315358244 379897807 137685155#0 129379968 -201950263#10 -201950263#6 -201950259#6 -201950259#3 -26677213#5 136436468#1 -201201945#1 -201201945#0 -201201945#0.78 -174800513 201201950#0 -24634411 160314345#1 160314345#2 24634414#2 24634414#3 24634414#4 -37386279 -24634413#2
" />
<route id="0_72_1" edges="
315358244 379897807 137685155#0 129379968 -201950263#10 -201950263#6 -201950259#6 -201950259#3 -26677213#5 136436468#1 -201201945#1 -201201945#0 -201201945#0.78 -174800513 -201238718#1 -201238718#0 -315392062#4 -24693977#1 -24693977#0 -32999434#1 -24634414#5 -37386279 -24634413#2
" />
<route id="0_72_2" edges="
315358244 379897807 137685155#0 129379968 -201950263#10 26677542#0 26677542#1 -26677214#5 26677216#0 26677216#1 26677216#2 26677216#3 23166741#5 -174800513 -201238718#1 -201238718#0 -315392062#4 -24693977#1 -24693977#0 -32999434#1 -24634414#5 -37386279 -24634413#2
" />
<route id="0_72_3" edges="
315358244 379897807 137685155#0 129379968 -201950263#10 26677542#0 26677542#1 -26677214#5 26677216#0 26677216#1 26677216#2 26677216#3 23166741#5 -174800513 201201950#0 -24634411 160314345#1 160314345#2 24634414#2 24634414#3 24634414#4 -37386279 -24634413#2
" />
<route id="0_77_0" edges="
315358244 379897807 137685155#0 129379968 -201950263#10 26677542#0 26677542#1 -26677214#5 -26677214#4 54169231#0 54169231#1 54169231#2 -26677216#0
" />
<route id="0_77_1" edges="
315358244 379897807 137685155#0 129379968 -201950263#10 -201950263#6 -201950259#6 -201950259#3 26677214#0 26677214#3 54169231#0 54169231#1 54169231#2 -26677216#0
" />
<route id="0_77_2" edges="
315358244 164078530 379897806 315358250#0 315358250#1 129379968 -201950263#10 26677542#0 26677542#1 -26677214#5 -26677214#4 54169231#0 54169231#1 54169231#2 -26677216#0
" />
<route id="0_77_3" edges="
315358244 164078530 379897806 315358250#0 315358250#1 129379968 -201950263#10 -201950263#6 -201950259#6 -201950259#3 26677214#0 26677214#3 54169231#0 54169231#1 54169231#2 -26677216#0
" />
<route id="0_92_0" edges="
315358244 379897807 137685155#0 129379968 -201950263#10 -201950263#6 -201950259#6 -201950259#3 -26677213#5 136436468#1 -201201945#1 -201201945#0 -201201945#0.78 -174800513 -201238718#1 -201238718#0 -315392062#4 -24693977#1 -24693977#0 -32999434#1 32999110#0 402600768#0 402600768#1 51857517#0 51857517#0.33 51857517#1 51857516#1
" />
<route id="0_92_1" edges="
315358244 379897807 137685155#0 129379968 -201950263#10 26677542#0 26677542#1 -26677214#5 26677216#0 26677216#1 26677216#2 26677216#3 23166741#5 -174800513 -201238718#1 -201238718#0 -315392062#4 -24693977#1 -24693977#0 -32999434#1 32999110#0 402600768#0 402600768#1 51857517#0 51857517#0.33 51857517#1 51857516#1
" />
<route id="0_92_2" edges="
315358244 379897807 137685155#0 129379968 -201950263#10 26677542#0 26677542#1 -26677214#5 26677216#0 26677216#1 26677216#2 26677216#3 23166741#5 -174800513 201201950#0 -24634411 -160314345#0 -315392062#4 -24693977#1 -24693977#0 -32999434#1 32999110#0 402600768#0 402600768#1 51857517#0 51857517#0.33 51857517#1 51857516#1
" />
<route id="0_92_3" edges="
315358244 379897807 137685155#0 129379968 -201950263#10 -201950263#6 -201950259#6 -201950259#3 -26677213#5 136436468#1 -201201945#1 -201201945#0 -201201945#0.78 -174800513 201201950#0 -24634411 -160314345#0 -315392062#4 -24693977#1 -24693977#0 -32999434#1 32999110#0 402600768#0 402600768#1 51857517#0 51857517#0.33 51857517#1 51857516#1
" />
<route id="0_93_0" edges="
315358244 379897807 137685155#0 129379968 -201950263#10 26677542#0 26677542#1 -26677214#5 26677216#0 26677216#1 26677216#2 26677216#3 23166741#5 -174800513 -201238718#1 -201238718#0 -315392062#4 -24693977#1 -24693977#0 -32999434#1 32999110#0
" />
<route id="0_93_1" edges="
315358244 379897807 137685155#0 129379968 -201950263#10 -201950263#6 -201950259#6 -201950259#3 -26677213#5 136436468#1 -201201945#1 -201201945#0 -201201945#0.78 -174800513 -201238718#1 -201238718#0 -315392062#4 -24693977#1 -24693977#0 -32999434#1 32999110#0
" />
<route id="0_93_2" edges="
315358244 379897807 137685155#0 129379968 -201950263#10 -201950263#6 -201950259#6 -201950259#3 -26677213#5 136436468#1 -201201945#1 -201201945#0 -201201945#0.78 -174800513 201201950#0 -24634411 -160314345#0 -315392062#4 -24693977#1 -24693977#0 -32999434#1 32999110#0
" />
<route id="0_93_3" edges="
315358244 379897807 137685155#0 129379968 -201950263#10 26677542#0 26677542#1 -26677214#5 26677216#0 26677216#1 26677216#2 26677216#3 23166741#5 -174800513 201201950#0 -24634411 -160314345#0 -315392062#4 -24693977#1 -24693977#0 -32999434#1 32999110#0
" />
<route id="0_98_0" edges="
315358244 379897807 137685155#0 129379968 -201950263#10 -201950263#6 -201950259#6 -201950259#3 -26677213#5 136436468#1 -201201945#1 -201201945#0 -201201945#0.78 -174800513 -201238718#1 -201238724 24634510#0 24634510#1
" />
<route id="0_98_1" edges="
315358244 379897807 137685155#0 129379968 -201950263#10 26677542#0 26677542#1 -26677214#5 26677216#0 26677216#1 26677216#2 26677216#3 23166741#5 -174800513 -201238718#1 -201238724 24634510#0 24634510#1
" />
<route id="0_98_2" edges="
315358244 164078530 379897806 315358250#0 315358250#1 129379968 -201950263#10 -201950263#6 -201950259#6 -201950259#3 -26677213#5 136436468#1 -201201945#1 -201201945#0 -201201945#0.78 -174800513 -201238718#1 -201238724 24634510#0 24634510#1
" />
<route id="0_98_3" edges="
315358244 164078530 379897806 315358250#0 315358250#1 129379968 -201950263#10 26677542#0 26677542#1 -26677214#5 26677216#0 26677216#1 26677216#2 26677216#3 23166741#5 -174800513 -201238718#1 -201238724 24634510#0 24634510#1
" />
<route id="0_101_0" edges="
315358244 379897807 137685155#0 129379968 -201950263#10 -201950263#6 -201950259#6 -201950259#3 -26677213#5 136436468#1 -201201945#1 -201201945#0 -201201945#0.78 -174800513 -201238718#1
" />
<route id="0_101_1" edges="
315358244 379897807 137685155#0 129379968 -201950263#10 26677542#0 26677542#1 -26677214#5 26677216#0 26677216#1 26677216#2 26677216#3 23166741#5 -174800513 -201238718#1
" />
<route id="0_101_2" edges="
315358244 164078530 379897806 315358250#0 315358250#1 129379968 -201950263#10 26677542#0 26677542#1 -26677214#5 26677216#0 26677216#1 26677216#2 26677216#3 23166741#5 -174800513 -201238718#1
" />
<route id="0_101_3" edges="
315358244 164078530 379897806 315358250#0 315358250#1 129379968 -201950263#10 -201950263#6 -201950259#6 -201950259#3 -26677213#5 136436468#1 -201201945#1 -201201945#0 -201201945#0.78 -174800513 -201238718#1
" />
<route id="0_102_0" edges="
315358244 379897807 137685155#0 129379968 -201950263#10 26677542#0 26677542#1 201950250#0 201950250#1 201950250#2 40888351#0 40888354#0 40888354#1 40888354#2 53396619#3
" />
<route id="0_102_1" edges="
315358244 379897807 137685155#0 129379968 -201950263#10 26677542#0 26677542#1 201950250#0 201950250#1 -26677539 26677416#4 -40888351#2 40888354#0 40888354#1 40888354#2 53396619#3
" />
<route id="0_102_2" edges="
315358244 379897807 137685155#0 129379968 -201950263#10 26677542#0 -26677417#1 -26677417#0 26677416#2 26677416#3 26677416#4 -40888351#2 40888354#0 40888354#1 40888354#2 53396619#3
" />
<route id="0_102_3" edges="
315358244 379897807 137685155#0 129379968 -201950263#10 26677542#0 -26677417#1 -26677417#0 26677416#2 26677416#3 26677539 201950250#2 40888351#0 40888354#0 40888354#1 40888354#2 53396619#3
" />
<route id="1_1_0" edges="
10425609#0 10425609#1 201963537#1 -164051413 -653473569#5 -653473569#4 25145011#0 -25145012#5 -22716069#1 25145014#0 25145014#1 25187891 -136728347#4 -26642362#5 -22716072#5 -22716072#3 -18809672#1 -285549250#1 -128361102#1
" />
<route id="1_1_1" edges="
10425609#0 10425609#1 25149219#1 391891458#0 -653473569#5 -653473569#4 -653473569#2 -22716069#2 -22716069#1 -22716069#0 -233675413#1 -233675413#0 -136728347#4 -26642362#5 -22716072#5 -22716072#3 -18809672#1 -285549250#1 -128361102#1
" />
<route id="1_1_2" edges="
10425609#0 10425609#1 25149219#1 391891458#0 -653473569#5 25145013#0 -25145012#6 -25145012#5 -22716069#1 -22716069#0 -233675413#1 -233675413#0 -136728347#4 -26642362#5 -22716072#5 -22716072#3 -18809672#1 -285549250#1 -128361102#1
" />
<route id="1_1_3" edges="
10425609#0 10425609#1 201963537#1 -164051413 -653473569#5 -653473569#4 -653473569#2 -22716069#2 -22716069#1 -22716069#0 -233675413#1 -233675413#0 -136728347#4 -26642362#5 -22716072#5 -22716072#3 -18809672#1 -285549250#1 -128361102#1
" />
<route id="1_4_0" edges="
10425609#0 10425609#1 201963537#1 104010475#0 104012170 -32124745 -32124743 -32124744 -201089423#2 -201089423#1 24693977#0 24693977#1 315392062#0 201238718#0 201238718#1 174800513 201201945#0 201201945#1 201201945#2 201201945#3 201201945#7 -40888359 201089420#0 315358257#0 315358257#0.43 -612075153#1 -612075153#0 399835085#0 399835085#1
" />
<route id="1_4_1" edges="
10425609#0 10425609#1 201963537#1 104010475#0 104012170 -32124745 -32124743 -32124744 -201089423#2 -201089423#1 24693977#0 24693977#1 315392062#0 201238718#0 201238718#1 174800513 201201945#0 201201945#1 201201945#2 201201945#3 201201945#7 201201945#8 201089420#0 315358257#0 315358257#0.43 -612075153#1 -612075153#0 399835085#0 399835085#1
" />
<route id="1_4_2" edges="
10425609#0 10425609#1 25149219#1 391891458#0 -653473569#5 -653473569#4 25145011#0 25145011#1 -233675413#6 22690205#0 23436553#0 23436553#2 -218647947#1 24634510#7 24634510#9 24634510#16 201238726#0 201238726#0.117 201238726#1 201238719#0 170018165#0 -224892361#8 -224892361#6 224892339#0 315358255#0 -612075153#1 -612075153#0 399835085#0 399835085#1
" />
<route id="1_4_3" edges="
10425609#0 10425609#1 25149219#1 391891458#0 -653473569#5 25145013#0 -25145012#6 25145011#1 -233675413#6 22690205#0 23436553#0 23436553#2 -218647947#1 24634510#7 24634510#9 24634510#16 201238726#0 201238726#0.117 201238726#1 201238719#0 170018165#0 -224892361#8 -224892361#6 224892339#0 315358255#0 -612075153#1 -612075153#0 399835085#0 399835085#1
" />
<route id="1_10_0" edges="
10425609#0 10425609#1 201963537#1 -164051413 -653473569#5 -653473569#4 25145011#0 25145011#1 -233675413#6 22690205#0 23436553#0 23436553#2 -218647947#1 24634510#7 24634510#9 24634510#16 201238726#0 201238726#0.117 201238726#1 201238719#0 170018165#0 170018165#1 170018165#2 170018165#2.175 306240162#0
" />
<route id="1_10_1" edges="
10425609#0 10425609#1 25149219#1 391891458#0 -653473569#5 25145013#0 25145013#1 -233675413#8 -233675413#6 22690205#0 23436553#0 23436553#2 -218647947#1 24634510#7 24634510#9 24634510#16 201238726#0 201238726#0.117 201238726#1 201238719#0 170018165#0 170018165#1 170018165#2 170018165#2.175 306240162#0
" />
<route id="1_10_2" edges="
10425609#0 10425609#1 201963537#1 -164051413 -653473569#5 25145013#0 -25145012#6 25145011#1 -233675413#6 22690205#0 23436553#0 23436553#2 -218647947#1 24634510#7 24634510#9 24634510#16 201238726#0 201238726#0.117 201238726#1 201238719#0 170018165#0 170018165#1 170018165#2 170018165#2.175 306240162#0
" />
<route id="1_10_3" edges="
10425609#0 10425609#1 25149219#1 391891458#0 -653473569#5 25145013#0 -25145012#6 25145011#1 -233675413#6 22690205#0 23436553#0 23436553#2 -218647947#1 24634510#7 24634510#9 24634510#16 201238726#0 201238726#0.117 201238726#1 201238719#0 170018165#0 170018165#1 170018165#2 170018165#2.175 306240162#0
" />
<route id="1_42_0" edges="
10425609#0 10425609#1 25149219#1 391891458#0 -653473569#5 25145013#0 -25145012#6 -25145012#5 -22716069#1 -22716069#0 -233675413#1 -233675413#0 -136728347#4 -201963533#5 -201963533#4 24634517#1 24634517#4 24634517#6 24634517#8 24634521#0 24634521#1 -218647954
" />
<route id="1_42_1" edges="
10425609#0 10425609#1 25149219#1 391891458#0 -653473569#5 25145013#0 -25145012#6 -25145012#5 -22716069#1 25145014#0 25145014#1 25187891 -136728347#4 -201963533#5 -201963533#4 24634517#1 24634517#4 24634517#6 24634517#8 24634517#9 -24634521#2 -218647954
" />
<route id="1_42_2" edges="
10425609#0 10425609#1 25149219#1 391891458#0 -653473569#5 -653473569#4 -653473569#2 -22716069#2 -22716069#1 -22716069#0 -233675413#1 -233675413#0 -136728347#4 -201963533#5 -201963533#4 24634517#1 24634517#4 24634517#6 24634517#8 24634521#0 24634521#1 -218647954
" />
<route id="1_42_3" edges="
10425609#0 10425609#1 201963537#1 -164051413 -653473569#5 -653473569#4 -653473569#2 -22716069#2 -22716069#1 -22716069#0 -233675413#1 -233675413#0 -136728347#4 -201963533#5 -201963533#4 24634517#1 24634517#4 24634517#6 24634517#8 24634521#0 24634521#1 -218647954
" />
<route id="1_57_0" edges="
10425609#0 10425609#1 25149219#1 391891458#0 -653473569#5 -653473569#4 -653473569#2 -653473569#1 -653473569#0 -653473568#1 -653473568#0 -18813598#8 -18813598#7 25136986 -26642363 26642363
" />
<route id="1_57_1" edges="
10425609#0 10425609#1 201963537#1 -164051413 -653473569#5 -653473569#4 -653473569#2 -653473569#1 -653473569#0 -653473568#1 -653473568#0 -18813598#8 -18813598#7 25136986 -26642363 26642363
" />
<route id="1_57_2" edges="