<additional>
<inductionLoop id="-100468675#0_det" lane="-100468675#0_0" pos="-5" file="NUL" friendlyPos="True"/>
<inductionLoop id="-100468675#1_det" lane="-100468675#1_0" pos="-5" file="NUL" friendlyPos="True"/>
<inductionLoop id="-100468675#2_det" lane="-100468675#2_0" pos="-5" file="NUL" friendlyPos="True"/>
<inductionLoop id="-100468675#3_det" lane="-100468675#3_0" pos="-5" file="NUL" friendlyPos="True"/>
<inductionLoop id="-100468681#0_det" lane="-100468681#0_0" pos="-5" file="NUL" friendlyPos="True"/>
<inductionLoop id="-100468681#1_det" lane="-100468681#1_0" pos="-5" file="NUL" friendlyPos="True"/>
<inductionLoop id="-100468681#2_det" lane="-100468681#2_0" pos="-5" file="NUL" friendlyPos="True"/>
<inductionLoop id="-100468681#3_det" lane="-100468681#3_0" pos="-5" file="NUL" friendlyPos="True"/>
<inductionLoop id="-100468681#4_det" lane="-100468681#4_0" pos="-5" file="NUL" friendlyPos="True"/>
<inductionLoop id="-100468681#5_det" lane="-100468681#5_0" pos="-5" file="NUL" friendlyPos="True"/>
<inductionLoop id="-100468681#6_det" lane="-100468681#6_0" pos="-5" file="NUL" friendlyPos="True"/>
<inductionLoop id="-100468681#7_det" lane="-100468681#7_0" pos="-5" file="NUL" friendlyPos="True"/>
<inductionLoop id="-100468681#8_det" lane="-100468681#8_0" pos="-5" file="NUL" friendlyPos="True"/>
<inductionLoop id="-100488715#0_det" lane="-100488715#0_0" pos="-5" file="NUL" friendlyPos="True"/>
<inductionLoop id="-100488715#1_det" lane="-100488715#1_0" pos="-5" file="NUL" friendlyPos="True"/>
<inductionLoop id="-100488715#2_det" lane="-100488715#2_0" pos="-5" file="NUL" friendlyPos="True"/>
<inductionLoop id="-100488715#3_det" lane="-100488715#3_0" pos="-5" file="NUL" friendlyPos="True"/>
<inductionLoop id="-100488715#4_det" lane="-100488715#4_0" pos="-5" file="NUL" friendlyPos="True"/>
<inductionLoop id="-100488715#5_det" lane="-100488715#5_0" pos="-5" file="NUL" friendlyPos="True"/>
<inductionLoop id="-100488715#6_det" lane="-100488715#6_0" pos="-5" file="NUL" friendlyPos="True"/>
<inductionLoop id="-100488715#7_det" lane="-100488715#7_0" pos="-5" file="NUL" friendlyPos="True"/>
<inductionLoop id="-100525438#0_det" lane="-100525438#0_0" pos="-5" file="NUL" friendlyPos="True"/>
<inductionLoop id="-100525438#1_det" lane="-100525438#1_0" pos="-5" file="NUL" friendlyPos="True"/>
<inductionLoop id="-100525438#2_det" lane="-100525438#2_0" pos="-5" file="NUL" friendlyPos="True"/>
<inductionLoop id="-100525445_det" lane="-100525445_0" pos="-5" file="NUL" friendlyPos="True"/>
<inductionLoop id="-1006827381_det" lane="-1006827381_0" pos="-5" file="NUL" friendlyPos="True"/>
<inductionLoop id="-101411571#0_det" lane="-101411571#0_0" pos="-5" file="NUL" friendlyPos="True"/>
<inductionLoop id="-101411571#1_det" lane="-101411571#1_0" pos="-5" file="NUL" friendlyPos="True"/>
<inductionLoop id="-101415864#0_det" lane="-101415864#0_0" pos="-5" file="NUL" friendlyPos="True"/>
<inductionLoop id="-101415864#1_det" lane="-101415864#1_0" pos="-5" file="NUL" friendlyPos="True"/>
<inductionLoop id="-101415865#0_det" lane="-101415865#0_0" pos="-5" file="NUL" friendlyPos="True"/>
<inductionLoop id="-101415865#1_det" lane="-101415865#1_0" pos="-5" file="NUL" friendlyPos="True"/>
<inductionLoop id="-101415865#2_det" lane="-101415865#2_0" pos="-5" file="NUL" friendlyPos="True"/>
<inductionLoop id="-101416507_det" lane="-101416507_0" pos="-5" file="NUL" friendlyPos="True"/>
<inductionLoop id="-101416509_det" lane="-101416509_0" pos="-5" file="NUL" friendlyPos="True"/>
<inductionLoop id="-101418584#0_det" lane="-101418584#0_0" pos="-5" file="NUL" friendlyPos="True"/>
<inductionLoop id="-101418584#1_det" lane="-101418584#1_0" pos="-5" file="NUL" friendlyPos="True"/>
<inductionLoop id="-101418584#2_det" lane="-101418584#2_0" pos="-5" file="NUL" friendlyPos="True"/>
<inductionLoop id="-101418584#3_det" lane="-101418584#3_0" pos="-5" file="NUL" friendlyPos="True"/>
<inductionLoop id="-101418584#4_det" lane="-101418584#4_0" pos="-5" file="NUL" friendlyPos="True"/>
<inductionLoop id="-101418587_det" lane="-101418587_0" pos="-5" file="NUL" friendlyPos="True"/>
<inductionLoop id="-101418589_det" lane="-101418589_0" pos="-5" file="NUL" friendlyPos="True"/>
<inductionLoop id="-101418591_det" lane="-101418591_0" pos="-5" file="NUL" friendlyPos="True"/>
<inductionLoop id="-101418592_det" lane="-101418592_0" pos="-5" file="NUL" friendlyPos="True"/>
<inductionLoop id="-101594809#0_det" lane="-101594809#0_0" pos="-5" file="NUL" friendlyPos="True"/>
<inductionLoop id="-101594809#1_det" lane="-101594809#1_0" pos="-5" file="NUL" friendlyPos="True"/>
<inductionLoop id="-101594826_det" lane="-101594826_0" pos="-5" file="NUL" friendlyPos="True"/>
<inductionLoop id="-101594830_det" lane="-101594830_0" pos="-5" file="NUL" friendlyPos="True"/>
<inductionLoop id="-101594836#0_det" lane="-101594836#0_0" pos="-5" file="NUL" friendlyPos="True"/>
<inductionLoop id="-101594836#1_det" lane="-101594836#1_0" pos="-5" file="NUL" friendlyPos="True"/>
<inductionLoop id="-101594843_det" lane="-101594843_0" pos="-5" file="NUL" friendlyPos="True"/>
<inductionLoop id="-101599070_det" lane="-101599070_0" pos="-5" file="NUL" friendlyPos="True"/>
<inductionLoop id="-101599072_det" lane="-101599072_0" pos="-5" file="NUL" friendlyPos="True"/>
<inductionLoop id="-101599076#0_det" lane="-101599076#0_0" pos="-5" file="NUL" friendlyPos="True"/>
<inductionLoop id="-101599076#1_det" lane="-101599076#1_0" pos="-5" file="NUL" friendlyPos="True"/>
<inductionLoop id="-101600741#0_det" lane="-101600741#0_0" pos="-5" file="NUL" friendlyPos="True"/>
<inductionLoop id="-101600741#1_det" lane="-101600741#1_0" pos="-5" file="NUL" friendlyPos="True"/>
<inductionLoop id="-101600741#2_det" lane="-101600741#2_0" pos="-5" file="NUL" friendlyPos="True"/>
<inductionLoop id="-101600741#3_det" lane="-101600741#3_0" pos="-5" file="NUL" friendlyPos="True"/>
<inductionLoop id="-101600741#4_det" lane="-101600741#4_0" pos="-5" file="NUL" friendlyPos="True"/>
<inductionLoop id="-101601551_det" lane="-101601551_0" pos="-5" file="NUL" friendlyPos="True"/>
<inductionLoop id="-101601553#0_det" lane="-101601553#0_0" pos="-5" file="NUL" friendlyPos="True"/>
<inductionLoop id="-101601553#1_det" lane="-101601553#1_0" pos="-5" file="NUL" friendlyPos="True"/>
<inductionLoop id="-101601557_det" lane="-101601557_0" pos="-5" file="NUL" friendlyPos="True"/>
<inductionLoop id="-101601559_det" lane="-101601559_0" pos="-5" file="NUL" friendlyPos="True"/>
<inductionLoop id="-101601561_det" lane="-101601561_0" pos="-5" file="NUL" friendlyPos="True"/>
<inductionLoop id="-101601563_det" lane="-101601563_0" pos="-5" file="NUL" friendlyPos="True"/>
<inductionLoop id="-101601830_det" lane="-101601830_0" pos="-5" file="NUL" friendlyPos="True"/>
<inductionLoop id="-101601831_det" lane="-101601831_0" pos="-5" file="NUL" friendlyPos="True"/>
<inductionLoop id="-101601832#0_det" lane="-101601832#0_0" pos="-5" file="NUL" friendlyPos="True"/>
<inductionLoop id="-101601832#1_det" lane="-101601832#1_0" pos="-5" file="NUL" friendlyPos="True"/>
<inductionLoop id="-101601832#2_det" lane="-101601832#2_0" pos="-5" file="NUL" friendlyPos="True"/>
<inductionLoop id="-101604496#0_det" lane="-101604496#0_0" pos="-5" file="NUL" friendlyPos="True"/>
<inductionLoop id="-101604496#1_det" lane="-101604496#1_0" pos="-5" file="NUL" friendlyPos="True"/>
<inductionLoop id="-101604497_det" lane="-101604497_0" pos="-5" file="NUL" friendlyPos="True"/>
<inductionLoop id="-101604499_det" lane="-101604499_0" pos="-5" file="NUL" friendlyPos="True"/>
<inductionLoop id="-101604502_det" lane="-101604502_0" pos="-5" file="NUL" friendlyPos="True"/>
<inductionLoop id="-101604503_det" lane="-101604503_0" pos="-5" file="NUL" friendlyPos="True"/>
<inductionLoop id="-101604508_det" lane="-101604508_0" pos="-5" file="NUL" friendlyPos="True"/>
<inductionLoop id="-101604513#0_det" lane="-101604513#0_0" pos="-5" file="NUL" friendlyPos="True"/>
<inductionLoop id="-101604513#1_det" lane="-101604513#1_0" pos="-5" file="NUL" friendlyPos="True"/>
<inductionLoop id="-101604518_det" lane="-101604518_0" pos="-5" file="NUL" friendlyPos="True"/>
<inductionLoop id="-101605219_det" lane="-101605219_0" pos="-5" file="NUL" friendlyPos="True"/>
<inductionLoop id="-101605947#2_det" lane="-101605947#2_0" pos="-5" file="NUL" friendlyPos="True"/>
<inductionLoop id="-101605948_det" lane="-101605948_0" pos="-5" file="NUL" friendlyPos="True"/>
<inductionLoop id="-101605950_det" lane="-101605950_0" pos="-5" file="NUL" friendlyPos="True"/>
<inductionLoop id="-101605951#0_det" lane="-101605951#0_0" pos="-5" file="NUL" friendlyPos="True"/>
<inductionLoop id="-101605951#1_det" lane="-101605951#1_0" pos="-5" file="NUL" friendlyPos="True"/>
<inductionLoop id="-101605951#2_det" lane="-101605951#2_0" pos="-5" file="NUL" friendlyPos="True"/>
<inductionLoop id="-101605951#3_det" lane="-101605951#3_0" pos="-5" file="NUL" friendlyPos="True"/>
<inductionLoop id="-101605951#4_det" lane="-101605951#4_0" pos="-5" file="NUL" friendlyPos="True"/>
<inductionLoop id="-101605951#5_det" lane="-101605951#5_0" pos="-5" file="NUL" friendlyPos="True"/>
<inductionLoop id="-101606546_det" lane="-101606546_0" pos="-5" file="NUL" friendlyPos="True"/>
<inductionLoop id="-101606547#1_det" lane="-101606547#1_0" pos="-5" file="NUL" friendlyPos="True"/>
<inductionLoop id="-101606547#2_det" lane="-101606547#2_0" pos="-5" file="NUL" friendlyPos="True"/>
<inductionLoop id="-101606549_det" lane="-101606549_0" pos="-5" file="NUL" friendlyPos="True"/>
<inductionLoop id="-101607098#0_det" lane="-101607098#0_0" pos="-5" file="NUL" friendlyPos="True"/>
<inductionLoop id="-101607098#1_det" lane="-101607098#1_0" pos="-5" file="NUL" friendlyPos="True"/>
<inductionLoop id="-101607101_det" lane="-101607101_0" pos="-5" file="NUL" friendlyPos="True"/>
<inductionLoop id="-101607965_det" lane="-101607965_0" pos="-5" file="NUL" friendlyPos="True"/>
<inductionLoop id="-101607966#0_det" lane="-101607966#0_0" pos="-5" file="NUL" friendlyPos="True"/>
<inductionLoop id="-101607966#1_det" lane="-101607966#1_0" pos="-5" file="NUL" friendlyPos="True"/>
<inductionLoop id="-101607967#0_det" lane="-101607967#0_0" pos="-5" file="NUL" friendlyPos="True"/>
<inductionLoop id="-101608824_det" lane="-101608824_0" pos="-5" file="NUL" friendlyPos="True"/>
<inductionLoop id="-101608828_det" lane="-101608828_0" pos="-5" file="NUL" friendlyPos="True"/>
<inductionLoop id="-101608959_det" lane="-101608959_0" pos="-5" file="NUL" friendlyPos="True"/>
<inductionLoop id="-101608960_det" lane="-101608960_0" pos="-5" file="NUL" friendlyPos="True"/>
<inductionLoop id="-101609494#0_det" lane="-101609494#0_0" pos="-5" file="NUL" friendlyPos="True"/>
<inductionLoop id="-101609494#1_det" lane="-101609494#1_0" pos="-5" file="NUL" friendlyPos="True"/>
<inductionLoop id="-101609498#0_det" lane="-101609498#0_0" pos="-5" file="NUL" friendlyPos="True"/>
<inductionLoop id="-101609498#1_det" lane="-101609498#1_0" pos="-5" file="NUL" friendlyPos="True"/>
<inductionLoop id="-101609498#2_det" lane="-101609498#2_0" pos="-5" file="NUL" friendlyPos="True"/>
<inductionLoop id="-101609498#3_det" lane="-101609498#3_0" pos="-5" file="NUL" friendlyPos="True"/>
<inductionLoop id="-101609498#4_det" lane="-101609498#4_0" pos="-5" file="NUL" friendlyPos="True"/>
<inductionLoop id="-101609498#5_det" lane="-101609498#5_0" pos="-5" file="NUL" friendlyPos="True"/>
<inductionLoop id="-101611066_det" lane="-101611066_0" pos="-5" file="NUL" friendlyPos="True"/>
<inductionLoop id="-101611600_det" lane="-101611600_0" pos="-5" file="NUL" friendlyPos="True"/>
<inductionLoop id="-101611601_det" lane="-101611601_0" pos="-5" file="NUL" friendlyPos="True"/>
<inductionLoop id="-101746498#0_det" lane="-101746498#0_0" pos="-5" file="NUL" friendlyPos="True"/>
<inductionLoop id="-101746498#1_det" lane="-101746498#1_0" pos="-5" file="NUL" friendlyPos="True"/>
<inductionLoop id="-101746498#2_det" lane="-101746498#2_0" pos="-5" file="NUL" friendlyPos="True"/>
<inductionLoop id="-101746504_det" lane="-101746504_0" pos="-5" file="NUL" friendlyPos="True"/>
<inductionLoop id="-101746508#0_det" lane="-101746508#0_0" pos="-5" file="NUL" friendlyPos="True"/>
<inductionLoop id="-101746508#1_det" lane="-101746508#1_0" pos="-5" file="NUL" friendlyPos="True"/>
<inductionLoop id="-101746514_det" lane="-101746514_0" pos="-5" file="NUL" friendlyPos="True"/>
<inductionLoop id="-101746516#0_det" lane="-101746516#0_0" pos="-5" file="NUL" friendlyPos="True"/>
<inductionLoop id="-101746516#1_det" lane="-101746516#1_0" pos="-5" file="NUL" friendlyPos="True"/>
<inductionLoop id="-101746516#2_det" lane="-101746516#2_0" pos="-5" file="NUL" friendlyPos="True"/>
<inductionLoop id="-101746516#3_det" lane="-101746516#3_0" pos="-5" file="NUL" friendlyPos="True"/>
<inductionLoop id="-101749449#0_det" lane="-101749449#0_0" pos="-5" file="NUL" friendlyPos="True"/>
<inductionLoop id="-101749449#1_det" lane="-101749449#1_0" pos="-5" file="NUL" friendlyPos="True"/>
<inductionLoop id="-101749451_det" lane="-101749451_0" pos="-5" file="NUL" friendlyPos="True"/>
<inductionLoop id="-101749453_det" lane="-101749453_0" pos="-5" file="NUL" friendlyPos="True"/>
<inductionLoop id="-101749458#0_det" lane="-101749458#0_0" pos="-5" file="NUL" friendlyPos="True"/>
<inductionLoop id="-101749458#1_det" lane="-101749458#1_0" pos="-5" file="NUL" friendlyPos="True"/>
<inductionLoop id="-101749462_det" lane="-101749462_0" pos="-5" file="NUL" friendlyPos="True"/>
<inductionLoop id="-101749465_det" lane="-101749465_0" pos="-5" file="NUL" friendlyPos="True"/>
<inductionLoop id="-101752970#1_det" lane="-101752970#1_0" pos="-5" file="NUL" friendlyPos="True"/>
<inductionLoop id="-101752970#2_det" lane="-101752970#2_0" pos="-5" file="NUL" friendlyPos="True"/>
<inductionLoop id="-101752975#0_det" lane="-101752975#0_0" pos="-5" file="NUL" friendlyPos="True"/>
<inductionLoop id="-101752975#1_det" lane="-101752975#1_0" pos="-5" file="NUL" friendlyPos="True"/>
<inductionLoop id="-101752975#2_det" lane="-101752975#2_0" pos="-5" file="NUL" friendlyPos="True"/>
<inductionLoop id="-101752976_det" lane="-101752976_0" pos="-5" file="NUL" friendlyPos="True"/>
<inductionLoop id="-101754276#0_det" lane="-101754276#0_0" pos="-5" file="NUL" friendlyPos="True"/>
<inductionLoop id="-101754276#1_det" lane="-101754276#1_0" pos="-5" file="NUL" friendlyPos="True"/>
<inductionLoop id="-101765339#0_det" lane="-101765339#0_0" pos="-5" file="NUL" friendlyPos="True"/>
<inductionLoop id="-101765339#2_det" lane="-101765339#2_0" pos="-5" file="NUL" friendlyPos="True"/>
<inductionLoop id="-101765339#3_det" lane="-101765339#3_0" pos="-5" file="NUL" friendlyPos="True"/>
<inductionLoop id="-101765339#4_det" lane="-101765339#4_0" pos="-5" file="NUL" friendlyPos="True"/>
<inductionLoop id="-101765339#5_det" lane="-101765339#5_0" pos="-5" file="NUL" friendlyPos="True"/>
<inductionLoop id="-101765339#6_det" lane="-101765339#6_0" pos="-5" file="NUL" friendlyPos="True"/>
<inductionLoop id="-101765343_det" lane="-101765343_0" pos="-5" file="NUL" friendlyPos="True"/>
<inductionLoop id="-101767911_det" lane="-101767911_0" pos="-5" file="NUL" friendlyPos="True"/>
<inductionLoop id="-101767922_det" lane="-101767922_0" pos="-5" file="NUL" friendlyPos="True"/>
<inductionLoop id="-101784793_det" lane="-101784793_0" pos="-5" file="NUL" friendlyPos="True"/>
<inductionLoop id="-101786553#0_det" lane="-101786553#0_0" pos="-5" file="NUL" friendlyPos="True"/>
<inductionLoop id="-101786553#1_det" lane="-101786553#1_0" pos="-5" file="NUL" friendlyPos="True"/>
<inductionLoop id="-101786553#2_det" lane="-101786553#2_0" pos="-5" file="NUL" friendlyPos="True"/>
<inductionLoop id="-101786554#1_det" lane="-101786554#1_0" pos="-5" file="NUL" friendlyPos="True"/>
<inductionLoop id="-101786554#2_det" lane="-101786554#2_0" pos="-5" file="NUL" friendlyPos="True"/>
<inductionLoop id="-101786554#3_det" lane="-101786554#3_0" pos="-5" file="NUL" friendlyPos="True"/>
<inductionLoop id="-101787489_det" lane="-101787489_0" pos="-5" file="NUL" friendlyPos="True"/>
<inductionLoop id="-101787491#0_det" lane="-101787491#0_0" pos="-5" file="NUL" friendlyPos="True"/>
<inductionLoop id="-101787491#1_det" lane="-101787491#1_0" pos="-5" file="NUL" friendlyPos="True"/>
<inductionLoop id="-101787493_det" lane="-101787493_0" pos="-5" file="NUL" friendlyPos="True"/>
<inductionLoop id="-101787495#1_det" lane="-101787495#1_0" pos="-5" file="NUL" friendlyPos="True"/>
<inductionLoop id="-101787498_det" lane="-101787498_0" pos="-5" file="NUL" friendlyPos="True"/>
<inductionLoop id="-102037781_det" lane="-102037781_0" pos="-5" file="NUL" friendlyPos="True"/>
<inductionLoop id="-1047409997_det" lane="-1047409997_0" pos="-5" file="NUL" friendlyPos="True"/>
<inductionLoop id="-1047412913_det" lane="-1047412913_0" pos="-5" file="NUL" friendlyPos="True"/>
<inductionLoop id="-1164659923_det" lane="-1164659923_0" pos="-5" file="NUL" friendlyPos="True"/>
<inductionLoop id="-1197063689_det" lane="-1197063689_0" pos="-5" file="NUL" friendlyPos="True"/>
<inductionLoop id="-1200809291_det" lane="-1200809291_0" pos="-5" file="NUL" friendlyPos="True"/>
<inductionLoop id="-120511142#2_det" lane="-120511142#2_0" pos="-5" file="NUL" friendlyPos="True"/>
<inductionLoop id="-120511144#0_det" lane="-120511144#0_0" pos="-5" file="NUL" friendlyPos="True"/>
<inductionLoop id="-120511144#1_det" lane="-120511144#1_0" pos="-5" file="NUL" friendlyPos="True"/>
<inductionLoop id="-120511144#2_det" lane="-120511144#2_0" pos="-5" file="NUL" friendlyPos="True"/>
<inductionLoop id="-120511301_det" lane="-120511301_0" pos="-5" file="NUL" friendlyPos="True"/>
<inductionLoop id="-120511302_det" lane="-120511302_0" pos="-5" file="NUL" friendlyPos="True"/>
<inductionLoop id="-120512823#0_det" lane="-120512823#0_0" pos="-5" file="NUL" friendlyPos="True"/>
<inductionLoop id="-120512823#1_det" lane="-120512823#1_0" pos="-5" file="NUL" friendlyPos="True"/>
<inductionLoop id="-120829754_det" lane="-120829754_0" pos="-5" file="NUL" friendlyPos="True"/>
<inductionLoop id="-1323419242#0_det" lane="-1323419242#0_0" pos="-5" file="NUL" friendlyPos="True"/>
<inductionLoop id="-1323419242#1_det" lane="-1323419242#1_0" pos="-5" file="NUL" friendlyPos="True"/>
<inductionLoop id="-1323419243_det" lane="-1323419243_0" pos="-5" file="NUL" friendlyPos="True"/>
<inductionLoop id="-1323419247_det" lane="-1323419247_0" pos="-5" file="NUL" friendlyPos="True"/>
<inductionLoop id="-133906979_det" lane="-133906979_0" pos="-5" file="NUL" friendlyPos="True"/>
<inductionLoop id="-133906980_det" lane="-133906980_0" pos="-5" file="NUL" friendlyPos="True"/>
<inductionLoop id="-134065887_det" lane="-134065887_0" pos="-5" file="NUL" friendlyPos="True"/>
<inductionLoop id="-148716288_det" lane="-148716288_0" pos="-5" file="NUL" friendlyPos="True"/>
<inductionLoop id="-162276528_det" lane="-162276528_0" pos="-5" file="NUL" friendlyPos="True"/>
<inductionLoop id="-162276533#0_det" lane="-162276533#0_0" pos="-5" file="NUL" friendlyPos="True"/>
<inductionLoop id="-162276533#1_det" lane="-162276533#1_0" pos="-5" file="NUL" friendlyPos="True"/>
<inductionLoop id="-162276533#2_det" lane="-162276533#2_0" pos="-5" file="NUL" friendlyPos="True"/>
<inductionLoop id="-162276631_det" lane="-162276631_0" pos="-5" file="NUL" friendlyPos="True"/>
<inductionLoop id="-16648700_det" lane="-16648700_0" pos="-5" file="NUL" friendlyPos="True"/>
<inductionLoop id="-173532317#0_det" lane="-173532317#0_0" pos="-5" file="NUL" friendlyPos="True"/>
<inductionLoop id="-173532317#1_det" lane="-173532317#1_0" pos="-5" file="NUL" friendlyPos="True"/>
<inductionLoop id="-173532317#2_det" lane="-173532317#2_0" pos="-5" file="NUL" friendlyPos="True"/>
<inductionLoop id="-173532317#3_det" lane="-173532317#3_0" pos="-5" file="NUL" friendlyPos="True"/>
<inductionLoop id="-224715833_det" lane="-224715833_0" pos="-5" file="NUL" friendlyPos="True"/>
<inductionLoop id="-224715836_det" lane="-224715836_0" pos="-5" file="NUL" friendlyPos="True"/>
<inductionLoop id="-23887076#2_det" lane="-23887076#2_0" pos="-5" file="NUL" friendlyPos="True"/>
<inductionLoop id="-23887076#3_det" lane="-23887076#3_0" pos="-5" file="NUL" friendlyPos="True"/>
<inductionLoop id="-282479126_det" lane="-282479126_0" pos="-5" file="NUL" friendlyPos="True"/>
<inductionLoop id="-282479127#2_det" lane="-282479127#2_0" pos="-5" file="NUL" friendlyPos="True"/>
<inductionLoop id="-282689975#0_det" lane="-282689975#0_0" pos="-5" file="NUL" friendlyPos="True"/>
<inductionLoop id="-282689975#1_det" lane="-282689975#1_0" pos="-5" file="NUL" friendlyPos="True"/>
<inductionLoop id="-282689975#2_det" lane="-282689975#2_0" pos="-5" file="NUL" friendlyPos="True"/>
<inductionLoop id="-282689975#3_det" lane="-282689975#3_0" pos="-5" file="NUL" friendlyPos="True"/>
<inductionLoop id="-282689975#4_det" lane="-282689975#4_0" pos="-5" file="NUL" friendlyPos="True"/>
<inductionLoop id="-282689981#0_det" lane="-282689981#0_0" pos="-5" file="NUL" friendlyPos="True"/>
<inductionLoop id="-282689981#1_det" lane="-282689981#1_0" pos="-5" file="NUL" friendlyPos="True"/>
<inductionLoop id="-282689984#0_det" lane="-282689984#0_0" pos="-5" file="NUL" friendlyPos="True"/>
<inductionLoop id="-282689984#1_det" lane="-282689984#1_0" pos="-5" file="NUL" friendlyPos="True"/>
<inductionLoop id="-282689985#1_det" lane="-282689985#1_0" pos="-5" file="NUL" friendlyPos="True"/>
<inductionLoop id="-282689986_det" lane="-282689986_0" pos="-5" file="NUL" friendlyPos="True"/>
<inductionLoop id="-282690560#0_det" lane="-282690560#0_0" pos="-5" file="NUL" friendlyPos="True"/>
<inductionLoop id="-282690560#1_det" lane="-282690560#1_0" pos="-5" file="NUL" friendlyPos="True"/>
<inductionLoop id="-283490977#0_det" lane="-283490977#0_0" pos="-5" file="NUL" friendlyPos="True"/>
<inductionLoop id="-283490977#1_det" lane="-283490977#1_0" pos="-5" file="NUL" friendlyPos="True"/>
<inductionLoop id="-297823017_det" lane="-297823017_0" pos="-5" file="NUL" friendlyPos="True"/>
<inductionLoop id="-297823018_det" lane="-297823018_0" pos="-5" file="NUL" friendlyPos="True"/>
<inductionLoop id="-297823020#0_det" lane="-297823020#0_0" pos="-5" file="NUL" friendlyPos="True"/>
<inductionLoop id="-297823020#1_det" lane="-297823020#1_0" pos="-5" file="NUL" friendlyPos="True"/>
<inductionLoop id="-297823021_det" lane="-297823021_0" pos="-5" file="NUL" friendlyPos="True"/>
<inductionLoop id="-297823024_det" lane="-297823024_0" pos="-5" file="NUL" friendlyPos="True"/>
<inductionLoop id="-336860316#0_det" lane="-336860316#0_0" pos="-5" file="NUL" friendlyPos="True"/>
<inductionLoop id="-336860316#1_det" lane="-336860316#1_0" pos="-5" file="NUL" friendlyPos="True"/>
<inductionLoop id="-336860317#0_det" lane="-336860317#0_0" pos="-5" file="NUL" friendlyPos="True"/>
<inductionLoop id="-336860317#1_det" lane="-336860317#1_0" pos="-5" file="NUL" friendlyPos="True"/>
<inductionLoop id="-336860320_det" lane="-336860320_0" pos="-5" file="NUL" friendlyPos="True"/>
<inductionLoop id="-336863927#0_det" lane="-336863927#0_0" pos="-5" file="NUL" friendlyPos="True"/>
<inductionLoop id="-336863927#1_det" lane="-336863927#1_0" pos="-5" file="NUL" friendlyPos="True"/>
<inductionLoop id="-336863927#3_det" lane="-336863927#3_0" pos="-5" file="NUL" friendlyPos="True"/>
<inductionLoop id="-336863934_det" lane="-336863934_0" pos="-5" file="NUL" friendlyPos="True"/>
<inductionLoop id="-352797377_det" lane="-352797377_0" pos="-5" file="NUL" friendlyPos="True"/>
<inductionLoop id="-372606529#0_det" lane="-372606529#0_0" pos="-5" file="NUL" friendlyPos="True"/>
<inductionLoop id="-372606529#1_det" lane="-372606529#1_0" pos="-5" file="NUL" friendlyPos="True"/>
<inductionLoop id="-372606529#2_det" lane="-372606529#2_0" pos="-5" file="NUL" friendlyPos="True"/>
<inductionLoop id="-372606529#3_det" lane="-372606529#3_0" pos="-5" file="NUL" friendlyPos="True"/>
<inductionLoop id="-372606529#4_det" lane="-372606529#4_0" pos="-5" file="NUL" friendlyPos="True"/>
<inductionLoop id="-372606529#5_det" lane="-372606529#5_0" pos="-5" file="NUL" friendlyPos="True"/>
<inductionLoop id="-372606529#6_det" lane="-372606529#6_0" pos="-5" file="NUL" friendlyPos="True"/>
<inductionLoop id="-372606529#7_det" lane="-372606529#7_0" pos="-5" file="NUL" friendlyPos="True"/>
<inductionLoop id="-372606529#8_det" lane="-372606529#8_0" pos="-5" file="NUL" friendlyPos="True"/>
<inductionLoop id="-416373452_det" lane="-416373452_0" pos="-5" file="NUL" friendlyPos="True"/>
<inductionLoop id="-416375813_det" lane="-416375813_0" pos="-5" file="NUL" friendlyPos="True"/>
<inductionLoop id="-416375814_det" lane="-416375814_0" pos="-5" file="NUL" friendlyPos="True"/>
<inductionLoop id="-416376586_det" lane="-416376586_0" pos="-5" file="NUL" friendlyPos="True"/>
<inductionLoop id="-416382004_det" lane="-416382004_0" pos="-5" file="NUL" friendlyPos="True"/>
<inductionLoop id="-416405090_det" lane="-416405090_0" pos="-5" file="NUL" friendlyPos="True"/>
<inductionLoop id="-416409190_det" lane="-416409190_0" pos="-5" file="NUL" friendlyPos="True"/>
<inductionLoop id="-416409191#0_det" lane="-416409191#0_0" pos="-5" file="NUL" friendlyPos="True"/>
<inductionLoop id="-416409191#1_det" lane="-416409191#1_0" pos="-5" file="NUL" friendlyPos="True"/>
<inductionLoop id="-416409192#7_det" lane="-416409192#7_0" pos="-5" file="NUL" friendlyPos="True"/>
<inductionLoop id="-416409192#8_det" lane="-416409192#8_0" pos="-5" file="NUL" friendlyPos="True"/>
<inductionLoop id="-416412034_det" lane="-416412034_0" pos="-5" file="NUL" friendlyPos="True"/>
<inductionLoop id="-416412039_det" lane="-416412039_0" pos="-5" file="NUL" friendlyPos="True"/>
<inductionLoop id="-42762427_det" lane="-42762427_0" pos="-5" file="NUL" friendlyPos="True"/>
<inductionLoop id="-42762428#0_det" lane="-42762428#0_0" pos="-5" file="NUL" friendlyPos="True"/>
<inductionLoop id="-42762428#3_det" lane="-42762428#3_0" pos="-5" file="NUL" friendlyPos="True"/>
<inductionLoop id="-42762428#4_det" lane="-42762428#4_0" pos="-5" file="NUL" friendlyPos="True"/>
<inductionLoop id="-463830227_det" lane="-463830227_0" pos="-5" file="NUL" friendlyPos="True"/>
<inductionLoop id="-47374664_det" lane="-47374664_0" pos="-5" file="NUL" friendlyPos="True"/>
<inductionLoop id="-47374665#1_det" lane="-47374665#1_0" pos="-5" file="NUL" friendlyPos="True"/>
<inductionLoop id="-47374680#0_det" lane="-47374680#0_0" pos="-5" file="NUL" friendlyPos="True"/>
<inductionLoop id="-47374680#1_det" lane="-47374680#1_0" pos="-5" file="NUL" friendlyPos="True"/>
<inductionLoop id="-47374680#2_det" lane="-47374680#2_0" pos="-5" file="NUL" friendlyPos="True"/>
<inductionLoop id="-47374680#3_det" lane="-47374680#3_0" pos="-5" file="NUL" friendlyPos="True"/>
<inductionLoop id="-47374680#4_det" lane="-47374680#4_0" pos="-5" file="NUL" friendlyPos="True"/>
<inductionLoop id="-47374680#5_det" lane="-47374680#5_0" pos="-5" file="NUL" friendlyPos="True"/>
<inductionLoop id="-47374680#6_det" lane="-47374680#6_0" pos="-5" file="NUL" friendlyPos="True"/>
<inductionLoop id="-47374680#7_det" lane="-47374680#7_0" pos="-5" file="NUL" friendlyPos="True"/>
<inductionLoop id="-47374680#8_det" lane="-47374680#8_0" pos="-5" file="NUL" friendlyPos="True"/>
<inductionLoop id="-479315694_det" lane="-479315694_0" pos="-5" file="NUL" friendlyPos="True"/>
<inductionLoop id="-619184994_det" lane="-619184994_0" pos="-5" file="NUL" friendlyPos="True"/>
<inductionLoop id="-659278038#0_det" lane="-659278038#0_0" pos="-5" file="NUL" friendlyPos="True"/>
<inductionLoop id="-659278038#1_det" lane="-659278038#1_0" pos="-5" file="NUL" friendlyPos="True"/>
<inductionLoop id="-659278038#2_det" lane="-659278038#2_0" pos="-5" file="NUL" friendlyPos="True"/>
<inductionLoop id="-659278038#3_det" lane="-659278038#3_0" pos="-5" file="NUL" friendlyPos="True"/>
<inductionLoop id="-659279347_det" lane="-659279347_0" pos="-5" file="NUL" friendlyPos="True"/>
<inductionLoop id="-659283000#0_det" lane="-659283000#0_0" pos="-5" file="NUL" friendlyPos="True"/>
<inductionLoop id="-659283000#1_det" lane="-659283000#1_0" pos="-5" file="NUL" friendlyPos="True"/>
<inductionLoop id="-659283000#10_det" lane="-659283000#10_0" pos="-5" file="NUL" friendlyPos="True"/>
<inductionLoop id="-659283000#11_det" lane="-659283000#11_0" pos="-5" file="NUL" friendlyPos="True"/>
<inductionLoop id="-659283000#2_det" lane="-659283000#2_0" pos="-5" file="NUL" friendlyPos="True"/>
<inductionLoop id="-659283000#3_det" lane="-659283000#3_0" pos="-5" file="NUL" friendlyPos="True"/>
<inductionLoop id="-659283000#5_det" lane="-659283000#5_0" pos="-5" file="NUL" friendlyPos="True"/>
<inductionLoop id="-659283000#6_det" lane="-659283000#6_0" pos="-5" file="NUL" friendlyPos="True"/>
<inductionLoop id="-659283000#7_det" lane="-659283000#7_0" pos="-5" file="NUL" friendlyPos="True"/>
<inductionLoop id="-659283000#8_det" lane="-659283000#8_0" pos="-5" file="NUL" friendlyPos="True"/>
<inductionLoop id="-679068326#0_det" lane="-679068326#0_0" pos="-5" file="NUL" friendlyPos="True"/>
<inductionLoop id="-679068326#1_det" lane="-679068326#1_0" pos="-5" file="NUL" friendlyPos="True"/>
<inductionLoop id="-679068326#2_det" lane="-679068326#2_0" pos="-5" file="NUL" friendlyPos="True"/>
<inductionLoop id="-679068326#3_det" lane="-679068326#3_0" pos="-5" file="NUL" friendlyPos="True"/>
<inductionLoop id="-697042776#1_det" lane="-697042776#1_0" pos="-5" file="NUL" friendlyPos="True"/>
<inductionLoop id="-71223800#1_det" lane="-71223800#1_0" pos="-5" file="NUL" friendlyPos="True"/>
<inductionLoop id="-71223800#2_det" lane="-71223800#2_0" pos="-5" file="NUL" friendlyPos="True"/>
<inductionLoop id="-71223800#3_det" lane="-71223800#3_0" pos="-5" file="NUL" friendlyPos="True"/>
<inductionLoop id="-71223800#4_det" lane="-71223800#4_0" pos="-5" file="NUL" friendlyPos="True"/>
<inductionLoop id="-71223800#5_det" lane="-71223800#5_0" pos="-5" file="NUL" friendlyPos="True"/>
<inductionLoop id="-71223800#6_det" lane="-71223800#6_0" pos="-5" file="NUL" friendlyPos="True"/>
<inductionLoop id="-71223800#7_det" lane="-71223800#7_0" pos="-5" file="NUL" friendlyPos="True"/>