<routes>
<vType id="Human" color="red" guiShape="passenger/sedan"/>
<vType id="AV" color="yellow"/>
<route id="0_0_0" edges="
-42762428#0 -697042776#1 623959719 619185406 619184994 1164659927#1 1164659926 120512822 -133906979 -133906980 -282479126 -100468681#8 -100468681#7 -100468681#6 -100468681#5 -100468681#4 -100468681#3 -100468681#2
" />
<route id="0_0_1" edges="
-42762428#0 -697042776#1 623959719 619185406 619184994 1164659927#1 1164659928 1164659929 120512822 -133906979 -133906980 -282479126 -100468681#8 -100468681#7 100525438#0 -101601553#1 -101601553#0 101600741#4 -100468681#2
" />
<route id="0_0_2" edges="
-42762428#0 -697042776#1 623959719 619185406 619184994 1164659927#1 1164659926 120512822 -133906979 -133906980 -282479126 -100468681#8 -100468681#7 100525438#0 -101601553#1 -101601553#0 101600741#4 -100468681#2
" />
<route id="0_0_3" edges="
-42762428#0 697042776#2 42762428#1 42762428#4 1197063689 1164653914 1164659927#1 1164659926 120512822 -133906979 -133906980 -282479126 -100468681#8 -100468681#7 -100468681#6 -100468681#5 -100468681#4 -100468681#3 -100468681#2
" />
<route id="0_35_0" edges="
-42762428#0 -697042776#1 623959719 -282689984#1 -282689984#0 -134065887 100475363 282479151#1 100475362 -659278038#3 -659278038#2 -659278038#1 -659278038#0 659278036#0 -416412034 659278036#2 659278036#3 -100468675#3 101599083#0 101599083#1 101599079#3 101599076#0 101599076#1 -101599076#1 -101599076#0
" />
<route id="0_35_1" edges="
-42762428#0 -697042776#1 623959719 -282689984#1 -282689984#0 -134065887 100475363 282479151#1 100475362 -659278038#3 -659278038#2 -659278038#1 -659278038#0 659278036#0 659278036#1 659278036#2 659278036#3 -100468675#3 101599083#0 101599083#1 101599079#3 101599076#0 101599076#1 -101599076#1 -101599076#0
" />
<route id="0_35_2" edges="
-42762428#0 -697042776#1 623959719 -282689984#1 -282689984#0 -134065887 100475363 282479151#1 100475362 -659278038#3 -659278038#2 -659278038#1 -659278038#0 659278036#0 -416412034 659278036#2 659278036#3 101600741#0 -101600741#0 -100468675#3 101599083#0 101599083#1 101599079#3 101599076#0 101599076#1 -101599076#1 -101599076#0
" />
<route id="0_35_3" edges="
-42762428#0 -697042776#1 623959719 -282689984#1 -282689984#0 -134065887 100475363 282479151#1 100475362 -659278038#3 -101601832#2 101601832#2 -659278038#2 -659278038#1 -659278038#0 659278036#0 659278036#1 659278036#2 659278036#3 -100468675#3 101599083#0 101599083#1 101599079#3 101599076#0 101599076#1 -101599076#1 -101599076#0
" />
<route id="1_1_0" edges="
-1323419247 1323419246 -416373452 101418587 464265154
" />
<route id="1_1_1" edges="
-1323419247 1323419246 -100525445 100525445 -416373452 101418587 464265154
" />
<route id="1_1_2" edges="
-1323419247 -120511142#2 120511142#2 1323419246 -416373452 101418587 464265154
" />
<route id="1_1_3" edges="
-1323419247 1323419247 868087112 526439431#0 526439431#1 42762429 1323419246 -416373452 101418587 464265154
" />
<route id="1_62_0" edges="
-1323419247 -120511142#2 75421017 619185406 619184994 1164659927#1 1164659926 120512822 282479125#0 282479125#1
" />
<route id="1_62_1" edges="
-1323419247 -120511142#2 75421017 619185406 619184994 1164659927#1 1164659928 1164659929 120512822 282479125#0 282479125#1
" />
<route id="1_62_2" edges="
-1323419247 -120511142#2 75421017 -282689984#1 282689984#1 619185406 619184994 1164659927#1 1164659926 120512822 282479125#0 282479125#1
" />
<route id="1_62_3" edges="
-1323419247 1323419247 868087112 526439431#0 526439431#1 623959719 619185406 619184994 1164659927#1 1164659926 120512822 282479125#0 282479125#1
" />
<route id="2_2_0" edges="
71324347#2 71324347#3 71324347#4 71324347#5 47374666 659281081#0 659281081#1 100525445 -416373452 416373452
" />
<route id="2_2_1" edges="
71324347#2 71324347#3 71324347#4 71324347#5 47374666 659281081#0 659281081#1 100525445 -100525445 526438862#0 526438862#1 526438862#2 1200809292 868087112 526439431#0 526439431#1 42762429 1323419246 -416373452 416373452
" />
<route id="2_2_2" edges="
71324347#2 71324347#3 101418583 526438862#2 1200809292 868087112 526439431#0 526439431#1 42762429 1323419246 -416373452 416373452
" />
<route id="2_2_3" edges="
71324347#2 71324347#3 71324347#4 71324347#5 -47374665#1 47374665#0 47374666 659281081#0 659281081#1 100525445 -416373452 416373452
" />
<route id="3_3_0" edges="
-100525445 100525445 -416373452 -101418584#4 -101418584#3 -101418584#2 -101418592 -100488715#3 101605951#0 101605951#1 -101606546 101606547#1
" />
<route id="3_3_1" edges="
-100525445 100525445 184568063 76867740 1323419243 -162276533#2 100488715#0 100488715#1 100488715#2 101605951#0 101605951#1 -101606546 101606547#1
" />
<route id="3_3_2" edges="
-100525445 100525445 184568063 1323419245 16648700 1323419243 -162276533#2 100488715#0 100488715#1 100488715#2 101605951#0 101605951#1 -101606546 101606547#1
" />
<route id="3_3_3" edges="
-100525445 100525445 -416373452 -101418584#4 -101418584#3 -101418584#2 -101418592 -100488715#3 101605951#0 101605951#1 101605951#2 -101605951#2 -101606546 101606547#1
" />
<route id="4_4_0" edges="
-282689981#0 101411570 282689981#1 352797377 -352797377
" />
<route id="4_4_1" edges="
-282689981#0 -679068326#3 679068326#3 101411570 282689981#1 352797377 -352797377
" />
<route id="4_4_2" edges="
-282689981#0 101411570 -101749462 101749462 282689981#1 352797377 -352797377
" />
<route id="4_4_3" edges="
-282689981#0 101411570 282689981#1 -120511301 120511301 352797377 -352797377
" />
<route id="5_5_0" edges="
-101607967#0 101607962 -101607966#1 -101607966#0 101607969#1 -100468681#3 -100468681#2 -100468681#1 -100468681#0
" />
<route id="5_5_1" edges="
-101607967#0 101607962 101607963 -659279347 101607969#0 101607969#1 -100468681#3 -100468681#2 -100468681#1 -100468681#0
" />
<route id="5_5_2" edges="
-101607967#0 101607962 -101607966#1 101607966#1 101607963 -659279347 101607969#0 101607969#1 -100468681#3 -100468681#2 -100468681#1 -100468681#0
" />
<route id="5_5_3" edges="
-101607967#0 101607962 -101607966#1 -101607966#0 101607969#1 -100468681#3 -101600741#4 101600741#4 -100468681#2 -100468681#1 -100468681#0
" />
<route id="6_6_0" edges="
-101594809#0 -101594836#0 372606529#2 372606529#3 372606529#4 372606529#5 372606529#6 372606529#7 372606529#8 1164659929 120512822 282479125#0 282479125#1 120511930 -42762428#0 -697042776#1 42762429 1323419246 184568063 76867740 1323419243 120511145 283490977#1 -173532317#3 -101786553#2 -101786553#1 -101786553#0 -101786554#3 -101786554#2 -101786554#1 -101787493
" />
<route id="6_6_1" edges="
-101594809#0 -101594836#0 372606529#2 372606529#3 372606529#4 372606529#5 372606529#6 372606529#7 372606529#8 1164659929 120512822 282479125#0 282479125#1 120511930 -42762428#0 -697042776#1 42762429 1323419246 184568063 76867740 1323419243 120511145 283490977#1 -173532317#3 -101786553#2 -101786553#1 -101786553#0 -101786554#3 -101787491#1 -101787491#0 -101786554#1 -101787493
" />
<route id="6_6_2" edges="
-101594809#0 -101594836#0 372606529#2 372606529#3 372606529#4 372606529#5 372606529#6 372606529#7 372606529#8 1164659929 120512822 282479125#0 282479125#1 120511930 -42762428#0 -697042776#1 42762429 1323419246 184568063 76867740 1323419243 120511145 283490977#1 -173532317#3 -173532317#2 -173532317#1 -101765339#6 -101765339#5 -101765339#4 -101765339#3 101786554#0 -101787493
" />
<route id="6_6_3" edges="
-101594809#0 -101594836#0 372606529#2 372606529#3 372606529#4 372606529#5 372606529#6 372606529#7 372606529#8 1164659929 120512822 282479125#0 282479125#1 120511930 -42762428#0 -697042776#1 42762429 1323419246 184568063 76867740 1323419243 120511145 283490977#1 -173532317#3 -173532317#2 -173532317#1 -101765339#6 416382004 -101754276#0 101765339#2 101786554#0 -101787493
" />
<route id="7_7_0" edges="
-659278038#3 659278038#3 100475365#0 100475365#1 282479151#3 282479151#4 100488713 -100488715#7 -100488715#6 -100488715#5 -100488715#4 -100488715#3 -100488715#2 -100488715#1 -100488715#0 162276533#2 120511145 283490977#1 -173532317#3 -173532317#2 -173532317#1 -173532317#0 47374679#0 101754278#0 101754278#1 -101752975#2 -101752975#1
" />
<route id="7_7_1" edges="
-659278038#3 659278038#3 100475365#0 100475365#1 282479151#3 282479151#4 100488713 -100488715#7 -101605219 -100488715#5 -100488715#4 -100488715#3 -100488715#2 -100488715#1 -100488715#0 162276533#2 120511145 283490977#1 -173532317#3 -173532317#2 -173532317#1 -173532317#0 47374679#0 101754278#0 101754278#1 -101752975#2 -101752975#1
" />
<route id="7_7_2" edges="
-659278038#3 659278038#3 100475365#0 100475365#1 282479151#3 282479151#4 100488713 -100488715#7 -101605219 -100488715#5 -100488715#4 -100488715#3 -100488715#2 -100488715#1 -100488715#0 162276533#2 120511145 283490977#1 -173532317#3 -173532317#2 -173532317#1 -101765339#6 416382004 336860320 101752975#1 101752975#2 -101752975#2 -101752975#1
" />
<route id="7_7_3" edges="
-659278038#3 659278038#3 100475365#0 100475365#1 282479151#3 282479151#4 100488713 -100488715#7 -100488715#6 -100488715#5 -100488715#4 -100488715#3 -100488715#2 -100488715#1 -100488715#0 162276533#2 120511145 283490977#1 -173532317#3 -173532317#2 -173532317#1 -173532317#0 47374679#0 47374679#1 101754282#1 101754278#1 -101752975#2 -101752975#1
" />
<route id="7_34_0" edges="
-659278038#3 659278038#3 100475365#0 100475365#1 282479151#3 282479151#4 100488713 -100488715#7 -101605219 -100488715#5 -100488715#4 101418592 101418584#2 101418584#3 101418584#4 416373452 -100525445 526438862#0 526438862#1 526438862#2 101418589 -1200809291
" />
<route id="7_34_1" edges="
-659278038#3 659278038#3 100475365#0 100475365#1 282479151#3 282479151#4 100488713 -100488715#7 -100488715#6 -100488715#5 -100488715#4 101418592 101418584#2 101418584#3 101418584#4 416373452 -100525445 526438862#0 526438862#1 526438862#2 101418589 -1200809291
" />
<route id="7_34_2" edges="
-659278038#3 659278038#3 100475365#0 100475365#1 282479151#3 282479151#4 100488713 -100488715#7 -100488715#6 -100488715#5 -100488715#4 -100488715#3 100488715#3 101418592 101418584#2 101418584#3 101418584#4 416373452 -100525445 526438862#0 526438862#1 526438862#2 101418589 -1200809291
" />
<route id="7_34_3" edges="
-659278038#3 -659278038#2 659278038#2 659278038#3 100475365#0 100475365#1 282479151#3 282479151#4 100488713 -100488715#7 -101605219 -100488715#5 -100488715#4 101418592 101418584#2 101418584#3 101418584#4 416373452 -100525445 526438862#0 526438862#1 526438862#2 101418589 -1200809291
" />
<route id="8_8_0" edges="
-101609498#5 -101609498#4 -101609498#3 101608828 -101607966#0 101607969#1 100468681#4 100468681#5 100468681#6 100468681#7 100468681#8 282479126 133906980 133906979 282479125#0 282479125#1 120511930 42762428#1 1164653913 463830226#0 463830226#1 101411570 282689981#1 -120511301 120509990 120509991 282689983#0 282689983#1
" />
<route id="8_8_1" edges="
-101609498#5 -101609498#4 -101609498#3 101608828 -101607966#0 101607969#1 100468681#4 100468681#5 100468681#6 100468681#7 100468681#8 282479126 133906980 133906979 282479125#0 282479125#1 120511930 42762428#1 1164653913 463830226#0 -416376586 71223791#1 101411570 282689981#1 -120511301 120509990 120509991 282689983#0 282689983#1
" />
<route id="8_8_2" edges="
-101609498#5 -101609498#4 -101609498#3 101608828 -101607966#0 101607969#1 100468681#4 100468681#5 100468681#6 100468681#7 100468681#8 282479126 133906980 133906979 282479125#0 282479125#1 120511930 42762428#1 42762428#4 71324344 463830226#0 463830226#1 101411570 282689981#1 -120511301 120509990 120509991 282689983#0 282689983#1
" />
<route id="8_8_3" edges="
-101609498#5 101609498#5 120512823#0 120512823#1 372606529#0 372606529#1 372606529#2 372606529#3 372606529#4 372606529#5 372606529#6 372606529#7 372606529#8 1164659929 120512822 282479125#0 282479125#1 120511930 42762428#1 1164653913 463830226#0 463830226#1 101411570 282689981#1 -120511301 120509990 120509991 282689983#0 282689983#1
" />
<route id="9_9_0" edges="
-120511302 120511302 71324347#1 71324347#2 71324347#3 101418583 526438862#2 1200809292 868087112 526439431#0 526439431#1 623959719 619185406 619184994 1164659927#1 1164659928 -372606529#8 -372606529#7 -372606529#6 -372606529#5 -372606529#4
" />
<route id="9_9_1" edges="
-120511302 120511302 71324347#1 71324347#2 71324347#3 101418583 526438862#2 1200809292 868087112 526439431#0 526439431#1 697042776#0 697042776#2 42762428#1 42762428#4 1197063689 282479127#0 101611060 -372606529#7 -372606529#6 -372606529#5 -372606529#4
" />
<route id="9_9_2" edges="
-120511302 120511302 71324347#1 71324347#2 71324347#3 101418583 526438862#2 1200809292 868087112 526439431#0 526439431#1 623959719 619185406 619184994 1164659927#1 1164659928 -372606529#8 372606529#8 1164659929 120512822 282479125#0 282479125#1 120511930 42762428#1 42762428#4 1197063689 282479127#0 101611060 -372606529#7 -372606529#6 -372606529#5 -372606529#4
" />
<route id="9_9_3" edges="
-120511302 120511302 71324347#1 71324347#2 71324347#3 101418583 526438862#2 1200809292 868087112 526439431#0 526439431#1 623959719 -282689984#1 282689984#1 619185406 619184994 1164659927#1 1164659928 -372606529#8 -372606529#7 -372606529#6 -372606529#5 -372606529#4
" />
<route id="10_10_0" edges="
101416508#0 101416508#1 -101416507 101415864#1 679068326#2 679068326#3 101411570 282689981#1 -120511301 120509990 71324347#0 71324347#1 71324347#2 71324347#3 101418583
" />
<route id="10_10_1" edges="
101416508#0 101416508#1 101416508#2 679068326#1 679068326#2 679068326#3 101411570 282689981#1 -120511301 120509990 71324347#0 71324347#1 71324347#2 71324347#3 101418583
" />
<route id="10_10_2" edges="
101416508#0 -101416509 -71324343#2 -71324343#1 -416375814 679068326#3 101411570 282689981#1 -120511301 120509990 71324347#0 71324347#1 71324347#2 71324347#3 101418583
" />
<route id="10_10_3" edges="
101416508#0 -101416509 -71324343#2 -71324343#1 -71324343#0 463830226#1 101411570 282689981#1 -120511301 120509990 71324347#0 71324347#1 71324347#2 71324347#3 101418583
" />
<route id="11_11_0" edges="
-47374680#7 -47374680#6 -47374680#5 -47374680#4 47374665#0 47374666 659281081#0 659281081#1 526438862#0 526438862#1 526438862#2
" />
<route id="11_11_1" edges="
-47374680#7 -47374680#6 -47374680#5 47374664 -47374664 -47374680#4 47374665#0 47374666 659281081#0 659281081#1 526438862#0 526438862#1 526438862#2
" />
<route id="11_11_2" edges="
-47374680#7 -47374680#6 -47374680#5 -47374680#4 47374680#4 47374680#5 101746498#0 -101746498#0 47374680#6 47374680#7 47374680#8 -101411571#0 120509990 71324347#0 71324347#1 71324347#2 71324347#3 101418583 526438862#2
" />
<route id="11_11_3" edges="
-47374680#7 -47374680#6 -47374680#5 -47374680#4 -47374680#3 47374680#3 47374665#0 47374666 659281081#0 659281081#1 526438862#0 526438862#1 526438862#2
" />
<route id="12_12_0" edges="
336863934 101594812#2 -101594836#1 -101594836#0 -372606529#1 -372606529#0 -101607965 101607964#1 101607969#0 101607969#1 100468681#4 100468681#5 100468681#6 100525438#0 100525438#1 100525438#2 659278038#0 659278038#1 659278038#2 659278038#3 100475365#0 100475365#1
" />
<route id="12_12_1" edges="
336863934 101594812#2 -101594836#1 -101594836#0 -372606529#1 -372606529#0 -101607965 101607964#1 101607969#0 101607969#1 -100468681#3 -101600741#4 101601553#0 101601553#1 100525438#1 100525438#2 659278038#0 659278038#1 659278038#2 659278038#3 100475365#0 100475365#1
" />
<route id="12_12_2" edges="
336863934 101594812#2 -101594836#1 -101594836#0 -372606529#1 -372606529#0 -101607965 101607964#1 101607969#0 101607969#1 -100468681#3 -101600741#4 101601553#0 101601553#1 100525438#1 100525438#2 659278038#0 659278038#1 659278038#2 -659278038#2 101604503 -101604503 -659278038#1 -101601831 101601831 -659278038#0 -100525438#2 -101604496#1 101604496#1 -100525438#1 -100525438#0 100525438#0 -101601553#1 -101601553#0 101600741#4 100468681#3 100468681#4 100468681#5 100468681#6 100468681#7 100468681#8 120511932#0 120511932#1 120511932#2 -101604499 100475363 282479151#1 100475362 -659278038#3 659278038#3 100475365#0 100475365#1
" />
<route id="12_12_3" edges="
336863934 101594812#2 -101594836#1 -101594836#0 -372606529#1 -372606529#0 -101607965 101607964#1 101607969#0 101607969#1 -100468681#3 -101600741#4 101601553#0 101601553#1 100525438#1 100525438#2 659278038#0 -101601831 101601831 659278038#1 659278038#2 659278038#3 100475365#0 100475365#1
" />
<route id="13_13_0" edges="
100475365#1 282479151#3 282479151#4 282479151#5 282479151#6 100475366 100475359 282689984#0 282689984#1 619185406 619184994 1164659927#1 1164659928 -372606529#8 -372606529#7 -372606529#6 -372606529#5 -372606529#4 -372606529#3 -372606529#2 101594836#0 101594809#0 336863934
" />
<route id="13_13_1" edges="
100475365#1 282479151#3 282479151#4 282479151#5 282479151#6 100475366 100475359 282689984#0 282689984#1 619185406 619184994 1164659927#1 1164659928 -372606529#8 -372606529#7 -372606529#6 -101611600 101611600 -372606529#5 -372606529#4 -372606529#3 -372606529#2 101594836#0 101594809#0 336863934
" />
<route id="13_13_2" edges="
100475365#1 282479151#3 282479151#4 282479151#5 282479151#6 100475366 100475359 282689984#0 282689984#1 619185406 120511930 42762428#1 42762428#4 1197063689 282479127#0 101611060 -372606529#7 -372606529#6 -372606529#5 -372606529#4 -372606529#3 -372606529#2 101594836#0 101594809#0 336863934
" />
<route id="13_13_3" edges="
100475365#1 282479151#3 282479151#4 282479151#5 282479151#6 100475366 101604499 -101604499 100475359 282689984#0 282689984#1 619185406 619184994 1164659927#1 1164659928 -372606529#8 -372606529#7 -372606529#6 -372606529#5 -372606529#4 -372606529#3 -372606529#2 101594836#0 101594809#0 336863934
" />
<route id="13_25_0" edges="
100475365#1 282479151#3 282479151#4 282479151#5 282479151#6 282479151#7 282479151#1 100475362 -659278038#3 -659278038#2 101604503 101604513#1 -101604513#1
" />
<route id="13_25_1" edges="
100475365#1 282479151#3 282479151#4 282479151#5 282479151#6 282479151#7 282479151#1 100475362 -659278038#3 -659278038#2 101604503 -101604513#0 101604513#0 101604513#1 -101604513#1
" />
<route id="13_25_2" edges="
100475365#1 282479151#3 282479151#4 282479151#5 282479151#6 282479151#7 282479151#1 100475362 -659278038#3 -101601832#2 101601832#2 -659278038#2 101604503 101604513#1 -101604513#1
" />
<route id="13_25_3" edges="
100475365#1 282479151#3 -1047409997 1047409997 282479151#4 282479151#5 282479151#6 282479151#7 282479151#1 100475362 -659278038#3 -659278038#2 101604503 101604513#1 -101604513#1
" />
<route id="13_32_0" edges="
100475365#1 282479151#3 282479151#4 282479151#5 282479151#6 282479151#7 282479151#1 100475362 -659278038#3 -101601832#2 -101601832#1 -101601832#0
" />
<route id="13_32_1" edges="
100475365#1 282479151#3 282479151#4 282479151#5 282479151#6 282479151#7 282479151#1 100475362 -659278038#3 -659278038#2 659278038#2 -101601832#2 -101601832#1 -101601832#0
" />
<route id="13_32_2" edges="
100475365#1 282479151#3 -1047409997 1047409997 282479151#4 282479151#5 282479151#6 282479151#7 282479151#1 100475362 -659278038#3 -101601832#2 -101601832#1 -101601832#0
" />
<route id="13_32_3" edges="
100475365#1 282479151#3 282479151#4 282479151#5 282479151#6 282479151#7 282479151#1 100475362 -659278038#3 -101601832#2 -101601830 101601830 -101601832#1 -101601832#0
" />
<route id="13_36_0" edges="
100475365#1 282479151#3 282479151#4 100488713 -100488715#7 -101605219 -100488715#5 -100488715#4 101418592 101418584#2 101418584#3 101418584#4 416373452 -100525445 526438862#0 526438862#1 526438862#2 101418589 625955757 71324347#2 71324347#3
" />
<route id="13_36_1" edges="
100475365#1 282479151#3 282479151#4 100488713 -100488715#7 -100488715#6 -100488715#5 -100488715#4 101418592 101418584#2 101418584#3 101418584#4 416373452 -100525445 526438862#0 526438862#1 526438862#2 101418589 625955757 71324347#2 71324347#3
" />
<route id="13_36_2" edges="
100475365#1 282479151#3 282479151#4 100488713 -100488715#7 -101605219 -100488715#5 100488715#5 101605219 -100488715#6 100488715#6 100488715#7 100488714 282479151#6 100475366 100475359 282689984#0 282689984#1 619185406 120511930 42762428#1 1164653913 463830226#0 463830226#1 101411570 282689981#1 -120511301 120509990 71324347#0 71324347#1 71324347#2 71324347#3
" />
<route id="13_36_3" edges="
100475365#1 282479151#3 282479151#4 100488713 -100488715#7 -101605219 101605219 -100488715#6 -100488715#5 -100488715#4 101418592 101418584#2 101418584#3 101418584#4 416373452 -100525445 526438862#0 526438862#1 526438862#2 101418589 625955757 71324347#2 71324347#3
" />
<route id="13_43_0" edges="
100475365#1 282479151#3 282479151#4 282479151#5 282479151#6 100475366 100475359 282689984#0 282689984#1 619185406 619184994 1164659927#1 1164659928 -372606529#8 -372606529#7 -372606529#6 -372606529#5 -372606529#4 -372606529#3 -372606529#2 -372606529#1 -372606529#0 -101607965 101607964#1 101607969#0 101607966#0 101607966#1 101607963
" />
<route id="13_43_1" edges="
100475365#1 282479151#3 282479151#4 282479151#5 282479151#6 282479151#7 282479151#1 100475362 -659278038#3 -659278038#2 -659278038#1 -659278038#0 -100525438#2 -100525438#1 -100525438#0 -100468681#6 -100468681#5 101607105 -101607101 101607107 101607098#1 101607098#2 -101607965 101607964#1 101607969#0 101607966#0 101607966#1 101607963
" />
<route id="13_43_2" edges="
100475365#1 282479151#3 282479151#4 282479151#5 282479151#6 282479151#7 282479151#1 100475362 -659278038#3 -659278038#2 -659278038#1 -659278038#0 -100525438#2 -100525438#1 -100525438#0 -100468681#6 -100468681#5 101607105 101607099 101607107 101607098#1 101607098#2 -101607965 101607964#1 101607969#0 101607966#0 101607966#1 101607963
" />
<route id="13_43_3" edges="
100475365#1 282479151#3 282479151#4 282479151#5 282479151#6 282479151#7 282479151#1 100475362 -659278038#3 -659278038#2 -659278038#1 -659278038#0 -100525438#2 -100525438#1 -100525438#0 100525438#0 -101601553#1 -101601553#0 101600741#4 100468681#3 100468681#4 101607105 -101607101 101607107 101607098#1 101607098#2 -101607965 101607964#1 101607969#0 101607966#0 101607966#1 101607963
" />
<route id="13_65_0" edges="
100475365#1 282479151#3 282479151#4 100488713 -100488715#7 -101605219 -100488715#5 -100488715#4 101418592 101418584#2 101418584#3 101418584#4 416373452 -100525445 526438862#0 526438862#1 526438862#2 101418589 625955757 71324347#2 71324347#3 71324347#4 71324347#5
" />
<route id="13_65_1" edges="
100475365#1 282479151#3 282479151#4 100488713 -100488715#7 -100488715#6 -100488715#5 -100488715#4 101418592 101418584#2 101418584#3 101418584#4 416373452 -100525445 526438862#0 526438862#1 526438862#2 101418589 625955757 71324347#2 71324347#3 71324347#4 71324347#5
" />
<route id="13_65_2" edges="
100475365#1 282479151#3 282479151#4 100488713 -100488715#7 -100488715#6 -100488715#5 100488715#5 101605219 -101605219 100488715#6 100488715#7 100488714 282479151#6 100475366 100475359 282689984#0 282689984#1 619185406 120511930 42762428#1 1164653913 463830226#0 463830226#1 101411570 282689981#1 -120511301 120509990 71324347#0 71324347#1 71324347#2 71324347#3 71324347#4 71324347#5
" />
<route id="13_65_3" edges="
100475365#1 282479151#3 282479151#4 100488713 -100488715#7 100488715#7 100488714 282479151#6 100475366 100475359 282689984#0 282689984#1 619185406 120511930 42762428#1 1164653913 463830226#0 463830226#1 101411570 282689981#1 -120511301 120509990 71324347#0 71324347#1 71324347#2 71324347#3 71324347#4 71324347#5
" />
<route id="13_82_0" edges="
100475365#1 282479151#3 282479151#4 282479151#5 282479151#6 282479151#7 282479151#1 100475362 -659278038#3 -659278038#2 -659278038#1 -659278038#0 -100525438#2 -100525438#1 -100525438#0 -100468681#6 -100468681#5 101607105 -101607101 101607107 101607098#1 101607098#2 -120512823#1 -120512823#0 -101609498#5 336863927#0 -101609494#1 -101609494#0
" />
<route id="13_82_1" edges="
100475365#1 282479151#3 282479151#4 282479151#5 282479151#6 100475366 100475359 282689984#0 282689984#1 619185406 619184994 1164659927#1 1164659928 -372606529#8 -372606529#7 -372606529#6 -372606529#5 -372606529#4 -372606529#3 -372606529#2 -372606529#1 -372606529#0 -120512823#1 -120512823#0 -101609498#5 336863927#0 -101609494#1 -101609494#0
" />
<route id="13_82_2" edges="
100475365#1 282479151#3 282479151#4 282479151#5 282479151#6 282479151#7 282479151#1 100475362 -659278038#3 -659278038#2 -659278038#1 -659278038#0 -100525438#2 -100525438#1 -100525438#0 -100468681#6 -100468681#5 101607105 101607099 101607107 101607098#1 101607098#2 -120512823#1 -120512823#0 -101609498#5 336863927#0 -101609494#1 -101609494#0
" />
<route id="13_82_3" edges="
100475365#1 282479151#3 282479151#4 282479151#5 282479151#6 282479151#7 282479151#1 100475362 -659278038#3 -659278038#2 -659278038#1 -659278038#0 -100525438#2 -100525438#1 -101601553#1 -101601553#0 101600741#4 100468681#3 100468681#4 101607105 101607099 101607107 101607098#1 101607098#2 -120512823#1 -120512823#0 -101609498#5 336863927#0 -101609494#1 -101609494#0
" />
<route id="14_5_0" edges="
-101611601 101611601 -372606529#2 -372606529#1 -372606529#0 -101607965 101607964#1 101607969#0 101607969#1 -100468681#3 -100468681#2 -100468681#1 -100468681#0
" />
<route id="14_5_1" edges="
-101611601 101611601 -372606529#2 101594836#0 -101594836#0 -372606529#1 -372606529#0 -101607965 101607964#1 101607969#0 101607969#1 -100468681#3 -100468681#2 -100468681#1 -100468681#0
" />
<route id="14_5_2" edges="
-101611601 101611601 -372606529#2 -372606529#1 -372606529#0 -101607965 101607964#1 101607969#0 101607966#0 -101607966#0 101607969#1 -100468681#3 -100468681#2 -100468681#1 -100468681#0
" />
<route id="14_5_3" edges="
-101611601 101611601 -372606529#2 -372606529#1 -372606529#0 -101607965 101607964#1 101607969#0 101607969#1 100468681#4 -100468681#4 -100468681#3 -100468681#2 -100468681#1 -100468681#0
" />
<route id="14_18_0" edges="
-101611601 101611601 372606529#3 372606529#4 372606529#5 372606529#6 372606529#7 372606529#8 1164659929 120512822 282479125#0 282479125#1 120511930 -42762428#0 -697042776#1 42762429 1323419246 184568063 76867740 1323419243 -1323419243
" />
<route id="14_18_1" edges="
-101611601 101611601 372606529#3 372606529#4 372606529#5 372606529#6 372606529#7 372606529#8 1164659929 120512822 282479125#0 282479125#1 120511930 -42762428#0 -697042776#1 42762429 1323419246 184568063 1323419245 16648700 1323419243 -1323419243
" />
<route id="14_18_2" edges="
-101611601 101611601 372606529#3 372606529#4 372606529#5 372606529#6 372606529#7 372606529#8 1164659929 120512822 282479125#0 282479125#1 619184994 -619184994 120511930 -42762428#0 -697042776#1 42762429 1323419246 184568063 76867740 1323419243 -1323419243
" />
<route id="14_18_3" edges="
-101611601 101611601 372606529#3 372606529#4 372606529#5 372606529#6 372606529#7 372606529#8 1164659929 120512822 282479125#0 101594830 -101594830 282479125#1 120511930 -42762428#0 -697042776#1 42762429 1323419246 184568063 76867740 1323419243 -1323419243
" />
<route id="15_5_0" edges="
-101604496#1 101604496#1 -100525438#1 -101601553#1 -101601553#0 101600741#4 -100468681#2 -100468681#1 -100468681#0
" />
<route id="15_5_1" edges="
-101604496#1 101604496#1 -100525438#1 -101601553#1 -101601557 101601557 -101601553#0 101600741#4 -100468681#2 -100468681#1 -100468681#0
" />
<route id="15_5_2" edges="
-101604496#1 -101604502 101604502 101604496#1 -100525438#1 -101601553#1 -101601553#0 101600741#4 -100468681#2 -100468681#1 -100468681#0
" />
<route id="15_5_3" edges="
-101604496#1 101604496#1 -100525438#1 -101601553#1 -101601553#0 101600741#4 100468681#3 -100468681#3 -100468681#2 -100468681#1 -100468681#0
" />
<route id="15_15_0" edges="
-101604496#1 101604496#1 -100525438#1 -100525438#0 100468681#7 100468681#8 282479126 133906980 133906979 282479125#0 282479125#1 120511930 -42762428#0 -697042776#1 42762429 1323419246 184568063 1323419245 16648700 1323419243 120511145 47374680#0 47374680#1 101415865#0 -101749449#1 101746514 -101746498#2
" />
<route id="15_15_1" edges="
-101604496#1 101604496#1 -100525438#1 -100525438#0 100468681#7 100468681#8 282479126 133906980 133906979 282479125#0 282479125#1 120511930 -42762428#0 -697042776#1 42762429 1323419246 184568063 76867740 1323419243 120511145 47374680#0 47374680#1 101415865#0 -101749449#1 101746514 -101746498#2
" />
<route id="15_15_2" edges="
-101604496#1 101604496#1 -100525438#1 -100525438#0 100468681#7 100468681#8 282479126 133906980 133906979 282479125#0 282479125#1 120511930 -42762428#0 -697042776#1 42762429 1323419246 184568063 76867740 1323419243 120511145 47374680#0 101749458#0 101749458#1 -101749449#1 101746514 -101746498#2
" />
<route id="15_15_3" edges="
-101604496#1 101604496#1 -100525438#1 -100525438#0 100468681#7 100468681#8 282479126 133906980 133906979 282479125#0 282479125#1 120511930 42762428#1 1164653913 463830226#0 463830226#1 101411570 282689981#1 -120511301 101411571#0 -47374680#8 -47374680#7 -47374680#6 101746498#0 101746498#1 101746498#2 -101746498#2
" />
<route id="16_14_0" edges="
101594836#1 101594812#3 101594812#0 101594843 101594815#0 -659283000#5 -659283000#3 -659283000#2 -659283000#1 -659283000#0 -282479127#2 1164653914 -619184994 120511930 -42762428#0 -697042776#1 42762429 1323419246 -416373452 -101418584#4 -101418584#3 -101418584#2 -101418584#1
" />
<route id="16_14_1" edges="
101594836#1 101594812#3 101594812#0 101594843 101594815#0 -659283000#5 -659283000#3 -659283000#2 -659283000#1 -659283000#0 -282479127#2 -1197063689 -42762428#4 -42762428#3 -42762428#0 -697042776#1 42762429 1323419246 -416373452 -101418584#4 -101418584#3 -101418584#2 -101418584#1
" />
<route id="16_14_2" edges="
101594836#1 101594812#3 101594812#0 101594843 101594815#0 -659283000#5 -659283000#3 -659283000#2 -659283000#1 -659283000#0 -282479127#2 -1197063689 -42762428#4 -42762428#3 -42762428#0 -697042776#1 42762429 1323419246 -416373452 101418587 -101418587 -101418584#4 -101418584#3 -101418584#2 -101418584#1
" />
<route id="16_14_3" edges="
101594836#1 101594812#3 101594812#0 101594843 101594815#0 -659283000#5 -659283000#3 -659283000#2 -659283000#1 -659283000#0 -282479127#2 -1197063689 -42762428#4 -42762428#3 -42762428#0 -697042776#1 42762429 1323419246 -100525445 100525445 -416373452 -101418584#4 -101418584#3 -101418584#2 -101418584#1