<additional>
<inductionLoop id="-104010328_det" lane="-104010328_0" pos="-5" file="NUL" friendlyPos="True"/>
<inductionLoop id="-10427692#1_det" lane="-10427692#1_0" pos="-5" file="NUL" friendlyPos="True"/>
<inductionLoop id="-10427692#2_det" lane="-10427692#2_0" pos="-5" file="NUL" friendlyPos="True"/>
<inductionLoop id="-10427692#3_det" lane="-10427692#3_0" pos="-5" file="NUL" friendlyPos="True"/>
<inductionLoop id="-10427692#4_det" lane="-10427692#4_0" pos="-5" file="NUL" friendlyPos="True"/>
<inductionLoop id="-10427692#5_det" lane="-10427692#5_0" pos="-5" file="NUL" friendlyPos="True"/>
<inductionLoop id="-10427692#6_det" lane="-10427692#6_0" pos="-5" file="NUL" friendlyPos="True"/>
<inductionLoop id="-10427692#7_det" lane="-10427692#7_0" pos="-5" file="NUL" friendlyPos="True"/>
<inductionLoop id="-10427692#8_det" lane="-10427692#8_0" pos="-5" file="NUL" friendlyPos="True"/>
<inductionLoop id="-120125554_det" lane="-120125554_0" pos="-5" file="NUL" friendlyPos="True"/>
<inductionLoop id="-128361102#1_det" lane="-128361102#1_0" pos="-5" file="NUL" friendlyPos="True"/>
<inductionLoop id="-129379918#1_det" lane="-129379918#1_0" pos="-5" file="NUL" friendlyPos="True"/>
<inductionLoop id="-129379920#0_det" lane="-129379920#0_0" pos="-5" file="NUL" friendlyPos="True"/>
<inductionLoop id="-129379920#1_det" lane="-129379920#1_0" pos="-5" file="NUL" friendlyPos="True"/>
<inductionLoop id="-129379921#0_det" lane="-129379921#0_0" pos="-5" file="NUL" friendlyPos="True"/>
<inductionLoop id="-129379921#1_det" lane="-129379921#1_0" pos="-5" file="NUL" friendlyPos="True"/>
<inductionLoop id="-129379922_det" lane="-129379922_0" pos="-5" file="NUL" friendlyPos="True"/>
<inductionLoop id="-129379925_det" lane="-129379925_0" pos="-5" file="NUL" friendlyPos="True"/>
<inductionLoop id="-136436466_det" lane="-136436466_0" pos="-5" file="NUL" friendlyPos="True"/>
<inductionLoop id="-136436468#2_det" lane="-136436468#2_0" pos="-5" file="NUL" friendlyPos="True"/>
<inductionLoop id="-136728347#4_det" lane="-136728347#4_0" pos="-5" file="NUL" friendlyPos="True"/>
<inductionLoop id="-137454133#0_det" lane="-137454133#0_0" pos="-5" file="NUL" friendlyPos="True"/>
<inductionLoop id="-137454133#1_det" lane="-137454133#1_0" pos="-5" file="NUL" friendlyPos="True"/>
<inductionLoop id="-137454133#5_det" lane="-137454133#5_0" pos="-5" file="NUL" friendlyPos="True"/>
<inductionLoop id="-138300620#6_det" lane="-138300620#6_0" pos="-5" file="NUL" friendlyPos="True"/>
<inductionLoop id="-160314345#0_det" lane="-160314345#0_0" pos="-5" file="NUL" friendlyPos="True"/>
<inductionLoop id="-160314345#1_det" lane="-160314345#1_0" pos="-5" file="NUL" friendlyPos="True"/>
<inductionLoop id="-160314345#2_det" lane="-160314345#2_0" pos="-5" file="NUL" friendlyPos="True"/>
<inductionLoop id="-160314345#3_det" lane="-160314345#3_0" pos="-5" file="NUL" friendlyPos="True"/>
<inductionLoop id="-160314345#4_det" lane="-160314345#4_0" pos="-5" file="NUL" friendlyPos="True"/>
<inductionLoop id="-160314345#5_det" lane="-160314345#5_0" pos="-5" file="NUL" friendlyPos="True"/>
<inductionLoop id="-160314346#0_det" lane="-160314346#0_0" pos="-5" file="NUL" friendlyPos="True"/>
<inductionLoop id="-160314346#1_det" lane="-160314346#1_0" pos="-5" file="NUL" friendlyPos="True"/>
<inductionLoop id="-160314351#0_det" lane="-160314351#0_0" pos="-5" file="NUL" friendlyPos="True"/>
<inductionLoop id="-160314351#1_det" lane="-160314351#1_0" pos="-5" file="NUL" friendlyPos="True"/>
<inductionLoop id="-164051413_det" lane="-164051413_0" pos="-5" file="NUL" friendlyPos="True"/>
<inductionLoop id="-164078530_det" lane="-164078530_0" pos="-5" file="NUL" friendlyPos="True"/>
<inductionLoop id="-170018165#0_det" lane="-170018165#0_0" pos="-5" file="NUL" friendlyPos="True"/>
<inductionLoop id="-170018165#1_det" lane="-170018165#1_0" pos="-5" file="NUL" friendlyPos="True"/>
<inductionLoop id="-170018165#2.164_det" lane="-170018165#2.164_0" pos="-5" file="NUL" friendlyPos="True"/>
<inductionLoop id="-170018165#2.210_det" lane="-170018165#2.210_0" pos="-5" file="NUL" friendlyPos="True"/>
<inductionLoop id="-170018165#3_det" lane="-170018165#3_0" pos="-5" file="NUL" friendlyPos="True"/>
<inductionLoop id="-173203413#7_det" lane="-173203413#7_0" pos="-5" file="NUL" friendlyPos="True"/>
<inductionLoop id="-174800513_det" lane="-174800513_0" pos="-5" file="NUL" friendlyPos="True"/>
<inductionLoop id="-18809672#1_det" lane="-18809672#1_0" pos="-5" file="NUL" friendlyPos="True"/>
<inductionLoop id="-18809672#4_det" lane="-18809672#4_0" pos="-5" file="NUL" friendlyPos="True"/>
<inductionLoop id="-18809672#5_det" lane="-18809672#5_0" pos="-5" file="NUL" friendlyPos="True"/>
<inductionLoop id="-18809672#6_det" lane="-18809672#6_0" pos="-5" file="NUL" friendlyPos="True"/>
<inductionLoop id="-18809672#7_det" lane="-18809672#7_0" pos="-5" file="NUL" friendlyPos="True"/>
<inductionLoop id="-18809673#1.275_det" lane="-18809673#1.275_0" pos="-5" file="NUL" friendlyPos="True"/>
<inductionLoop id="-18809673#6_det" lane="-18809673#6_0" pos="-5" file="NUL" friendlyPos="True"/>
<inductionLoop id="-18813598#1_det" lane="-18813598#1_0" pos="-5" file="NUL" friendlyPos="True"/>
<inductionLoop id="-18813598#6_det" lane="-18813598#6_0" pos="-5" file="NUL" friendlyPos="True"/>
<inductionLoop id="-18813598#7_det" lane="-18813598#7_0" pos="-5" file="NUL" friendlyPos="True"/>
<inductionLoop id="-18813598#8_det" lane="-18813598#8_0" pos="-5" file="NUL" friendlyPos="True"/>
<inductionLoop id="-201089420#1_det" lane="-201089420#1_0" pos="-5" file="NUL" friendlyPos="True"/>
<inductionLoop id="-201089423#1_det" lane="-201089423#1_0" pos="-5" file="NUL" friendlyPos="True"/>
<inductionLoop id="-201089423#2_det" lane="-201089423#2_0" pos="-5" file="NUL" friendlyPos="True"/>
<inductionLoop id="-201201945#0_det" lane="-201201945#0_0" pos="-5" file="NUL" friendlyPos="True"/>
<inductionLoop id="-201201945#0.78_det" lane="-201201945#0.78_0" pos="-5" file="NUL" friendlyPos="True"/>
<inductionLoop id="-201201945#1_det" lane="-201201945#1_0" pos="-5" file="NUL" friendlyPos="True"/>
<inductionLoop id="-201201945#2_det" lane="-201201945#2_0" pos="-5" file="NUL" friendlyPos="True"/>
<inductionLoop id="-201201945#6_det" lane="-201201945#6_0" pos="-5" file="NUL" friendlyPos="True"/>
<inductionLoop id="-201201945#7_det" lane="-201201945#7_0" pos="-5" file="NUL" friendlyPos="True"/>
<inductionLoop id="-201201945#8_det" lane="-201201945#8_0" pos="-5" file="NUL" friendlyPos="True"/>
<inductionLoop id="-201238718#0_det" lane="-201238718#0_0" pos="-5" file="NUL" friendlyPos="True"/>
<inductionLoop id="-201238718#1_det" lane="-201238718#1_0" pos="-5" file="NUL" friendlyPos="True"/>
<inductionLoop id="-201238724_det" lane="-201238724_0" pos="-5" file="NUL" friendlyPos="True"/>
<inductionLoop id="-201238726#0_det" lane="-201238726#0_0" pos="-5" file="NUL" friendlyPos="True"/>
<inductionLoop id="-201238726#0.98_det" lane="-201238726#0.98_0" pos="-5" file="NUL" friendlyPos="True"/>
<inductionLoop id="-201238726#1_det" lane="-201238726#1_0" pos="-5" file="NUL" friendlyPos="True"/>
<inductionLoop id="-201950247#0_det" lane="-201950247#0_0" pos="-5" file="NUL" friendlyPos="True"/>
<inductionLoop id="-201950247#4_det" lane="-201950247#4_0" pos="-5" file="NUL" friendlyPos="True"/>
<inductionLoop id="-201950247#5_det" lane="-201950247#5_0" pos="-5" file="NUL" friendlyPos="True"/>
<inductionLoop id="-201950247#6_det" lane="-201950247#6_0" pos="-5" file="NUL" friendlyPos="True"/>
<inductionLoop id="-201950247#7_det" lane="-201950247#7_0" pos="-5" file="NUL" friendlyPos="True"/>
<inductionLoop id="-201950247#8_det" lane="-201950247#8_0" pos="-5" file="NUL" friendlyPos="True"/>
<inductionLoop id="-201950250#0_det" lane="-201950250#0_0" pos="-5" file="NUL" friendlyPos="True"/>
<inductionLoop id="-201950250#1_det" lane="-201950250#1_0" pos="-5" file="NUL" friendlyPos="True"/>
<inductionLoop id="-201950250#2_det" lane="-201950250#2_0" pos="-5" file="NUL" friendlyPos="True"/>
<inductionLoop id="-201950259#3_det" lane="-201950259#3_0" pos="-5" file="NUL" friendlyPos="True"/>
<inductionLoop id="-201950259#6_det" lane="-201950259#6_0" pos="-5" file="NUL" friendlyPos="True"/>
<inductionLoop id="-201950263#10_det" lane="-201950263#10_0" pos="-5" file="NUL" friendlyPos="True"/>
<inductionLoop id="-201950263#6_det" lane="-201950263#6_0" pos="-5" file="NUL" friendlyPos="True"/>
<inductionLoop id="-201963533#4_det" lane="-201963533#4_0" pos="-5" file="NUL" friendlyPos="True"/>
<inductionLoop id="-201963533#5_det" lane="-201963533#5_0" pos="-5" file="NUL" friendlyPos="True"/>
<inductionLoop id="-202092675.36_det" lane="-202092675.36_0" pos="-5" file="NUL" friendlyPos="True"/>
<inductionLoop id="-218647947#1_det" lane="-218647947#1_0" pos="-5" file="NUL" friendlyPos="True"/>
<inductionLoop id="-218647954_det" lane="-218647954_0" pos="-5" file="NUL" friendlyPos="True"/>
<inductionLoop id="-224251774#0_det" lane="-224251774#0_0" pos="-5" file="NUL" friendlyPos="True"/>
<inductionLoop id="-224251774#1_det" lane="-224251774#1_0" pos="-5" file="NUL" friendlyPos="True"/>
<inductionLoop id="-224251776#1_det" lane="-224251776#1_0" pos="-5" file="NUL" friendlyPos="True"/>
<inductionLoop id="-224892339#3_det" lane="-224892339#3_0" pos="-5" file="NUL" friendlyPos="True"/>
<inductionLoop id="-224892361#1_det" lane="-224892361#1_0" pos="-5" file="NUL" friendlyPos="True"/>
<inductionLoop id="-224892361#2_det" lane="-224892361#2_0" pos="-5" file="NUL" friendlyPos="True"/>
<inductionLoop id="-224892361#6_det" lane="-224892361#6_0" pos="-5" file="NUL" friendlyPos="True"/>
<inductionLoop id="-224892361#8_det" lane="-224892361#8_0" pos="-5" file="NUL" friendlyPos="True"/>
<inductionLoop id="-22690205#1_det" lane="-22690205#1_0" pos="-5" file="NUL" friendlyPos="True"/>
<inductionLoop id="-22690205#2_det" lane="-22690205#2_0" pos="-5" file="NUL" friendlyPos="True"/>
<inductionLoop id="-22690205#3_det" lane="-22690205#3_0" pos="-5" file="NUL" friendlyPos="True"/>
<inductionLoop id="-22716069#0_det" lane="-22716069#0_0" pos="-5" file="NUL" friendlyPos="True"/>
<inductionLoop id="-22716069#1_det" lane="-22716069#1_0" pos="-5" file="NUL" friendlyPos="True"/>
<inductionLoop id="-22716069#2_det" lane="-22716069#2_0" pos="-5" file="NUL" friendlyPos="True"/>
<inductionLoop id="-22716072#3_det" lane="-22716072#3_0" pos="-5" file="NUL" friendlyPos="True"/>
<inductionLoop id="-22716072#5_det" lane="-22716072#5_0" pos="-5" file="NUL" friendlyPos="True"/>
<inductionLoop id="-22716549#6_det" lane="-22716549#6_0" pos="-5" file="NUL" friendlyPos="True"/>
<inductionLoop id="-22724699#1_det" lane="-22724699#1_0" pos="-5" file="NUL" friendlyPos="True"/>
<inductionLoop id="-22724699#11_det" lane="-22724699#11_0" pos="-5" file="NUL" friendlyPos="True"/>
<inductionLoop id="-22724699#2_det" lane="-22724699#2_0" pos="-5" file="NUL" friendlyPos="True"/>
<inductionLoop id="-22724699#6_det" lane="-22724699#6_0" pos="-5" file="NUL" friendlyPos="True"/>
<inductionLoop id="-233675413#0_det" lane="-233675413#0_0" pos="-5" file="NUL" friendlyPos="True"/>
<inductionLoop id="-233675413#1_det" lane="-233675413#1_0" pos="-5" file="NUL" friendlyPos="True"/>
<inductionLoop id="-233675413#2_det" lane="-233675413#2_0" pos="-5" file="NUL" friendlyPos="True"/>
<inductionLoop id="-233675413#3_det" lane="-233675413#3_0" pos="-5" file="NUL" friendlyPos="True"/>
<inductionLoop id="-233675413#6_det" lane="-233675413#6_0" pos="-5" file="NUL" friendlyPos="True"/>
<inductionLoop id="-233675413#8_det" lane="-233675413#8_0" pos="-5" file="NUL" friendlyPos="True"/>
<inductionLoop id="-23436553#1_det" lane="-23436553#1_0" pos="-5" file="NUL" friendlyPos="True"/>
<inductionLoop id="-23436553#2_det" lane="-23436553#2_0" pos="-5" file="NUL" friendlyPos="True"/>
<inductionLoop id="-24608845_det" lane="-24608845_0" pos="-5" file="NUL" friendlyPos="True"/>
<inductionLoop id="-24608846#0_det" lane="-24608846#0_0" pos="-5" file="NUL" friendlyPos="True"/>
<inductionLoop id="-24608846#1_det" lane="-24608846#1_0" pos="-5" file="NUL" friendlyPos="True"/>
<inductionLoop id="-24634411_det" lane="-24634411_0" pos="-5" file="NUL" friendlyPos="True"/>
<inductionLoop id="-24634413#0_det" lane="-24634413#0_0" pos="-5" file="NUL" friendlyPos="True"/>
<inductionLoop id="-24634413#1_det" lane="-24634413#1_0" pos="-5" file="NUL" friendlyPos="True"/>
<inductionLoop id="-24634413#2_det" lane="-24634413#2_0" pos="-5" file="NUL" friendlyPos="True"/>
<inductionLoop id="-24634414#0_det" lane="-24634414#0_0" pos="-5" file="NUL" friendlyPos="True"/>
<inductionLoop id="-24634414#1_det" lane="-24634414#1_0" pos="-5" file="NUL" friendlyPos="True"/>
<inductionLoop id="-24634414#2_det" lane="-24634414#2_0" pos="-5" file="NUL" friendlyPos="True"/>
<inductionLoop id="-24634414#3_det" lane="-24634414#3_0" pos="-5" file="NUL" friendlyPos="True"/>
<inductionLoop id="-24634414#4_det" lane="-24634414#4_0" pos="-5" file="NUL" friendlyPos="True"/>
<inductionLoop id="-24634414#5_det" lane="-24634414#5_0" pos="-5" file="NUL" friendlyPos="True"/>
<inductionLoop id="-24634415_det" lane="-24634415_0" pos="-5" file="NUL" friendlyPos="True"/>
<inductionLoop id="-24634417_det" lane="-24634417_0" pos="-5" file="NUL" friendlyPos="True"/>
<inductionLoop id="-24634505_det" lane="-24634505_0" pos="-5" file="NUL" friendlyPos="True"/>
<inductionLoop id="-24634506#2_det" lane="-24634506#2_0" pos="-5" file="NUL" friendlyPos="True"/>
<inductionLoop id="-24634507_det" lane="-24634507_0" pos="-5" file="NUL" friendlyPos="True"/>
<inductionLoop id="-24634508_det" lane="-24634508_0" pos="-5" file="NUL" friendlyPos="True"/>
<inductionLoop id="-24634509#0_det" lane="-24634509#0_0" pos="-5" file="NUL" friendlyPos="True"/>
<inductionLoop id="-24634509#7_det" lane="-24634509#7_0" pos="-5" file="NUL" friendlyPos="True"/>
<inductionLoop id="-24634510#0_det" lane="-24634510#0_0" pos="-5" file="NUL" friendlyPos="True"/>
<inductionLoop id="-24634510#15_det" lane="-24634510#15_0" pos="-5" file="NUL" friendlyPos="True"/>
<inductionLoop id="-24634510#18_det" lane="-24634510#18_0" pos="-5" file="NUL" friendlyPos="True"/>
<inductionLoop id="-24634510#5_det" lane="-24634510#5_0" pos="-5" file="NUL" friendlyPos="True"/>
<inductionLoop id="-24634510#6_det" lane="-24634510#6_0" pos="-5" file="NUL" friendlyPos="True"/>
<inductionLoop id="-24634510#8_det" lane="-24634510#8_0" pos="-5" file="NUL" friendlyPos="True"/>
<inductionLoop id="-24634511_det" lane="-24634511_0" pos="-5" file="NUL" friendlyPos="True"/>
<inductionLoop id="-24634513#5_det" lane="-24634513#5_0" pos="-5" file="NUL" friendlyPos="True"/>
<inductionLoop id="-24634513#6_det" lane="-24634513#6_0" pos="-5" file="NUL" friendlyPos="True"/>
<inductionLoop id="-24634514#1_det" lane="-24634514#1_0" pos="-5" file="NUL" friendlyPos="True"/>
<inductionLoop id="-24634516#0_det" lane="-24634516#0_0" pos="-5" file="NUL" friendlyPos="True"/>
<inductionLoop id="-24634516#1_det" lane="-24634516#1_0" pos="-5" file="NUL" friendlyPos="True"/>
<inductionLoop id="-24634516#2_det" lane="-24634516#2_0" pos="-5" file="NUL" friendlyPos="True"/>
<inductionLoop id="-24634517#5_det" lane="-24634517#5_0" pos="-5" file="NUL" friendlyPos="True"/>
<inductionLoop id="-24634517#7_det" lane="-24634517#7_0" pos="-5" file="NUL" friendlyPos="True"/>
<inductionLoop id="-24634519_det" lane="-24634519_0" pos="-5" file="NUL" friendlyPos="True"/>
<inductionLoop id="-24634521#2_det" lane="-24634521#2_0" pos="-5" file="NUL" friendlyPos="True"/>
<inductionLoop id="-24693977#0_det" lane="-24693977#0_0" pos="-5" file="NUL" friendlyPos="True"/>
<inductionLoop id="-24693977#1_det" lane="-24693977#1_0" pos="-5" file="NUL" friendlyPos="True"/>
<inductionLoop id="-25117391#1_det" lane="-25117391#1_0" pos="-5" file="NUL" friendlyPos="True"/>
<inductionLoop id="-25117391#2_det" lane="-25117391#2_0" pos="-5" file="NUL" friendlyPos="True"/>
<inductionLoop id="-25136986_det" lane="-25136986_0" pos="-5" file="NUL" friendlyPos="True"/>
<inductionLoop id="-25145011#0_det" lane="-25145011#0_0" pos="-5" file="NUL" friendlyPos="True"/>
<inductionLoop id="-25145011#2_det" lane="-25145011#2_0" pos="-5" file="NUL" friendlyPos="True"/>
<inductionLoop id="-25145012#3_det" lane="-25145012#3_0" pos="-5" file="NUL" friendlyPos="True"/>
<inductionLoop id="-25145012#4_det" lane="-25145012#4_0" pos="-5" file="NUL" friendlyPos="True"/>
<inductionLoop id="-25145012#5_det" lane="-25145012#5_0" pos="-5" file="NUL" friendlyPos="True"/>
<inductionLoop id="-25145012#6_det" lane="-25145012#6_0" pos="-5" file="NUL" friendlyPos="True"/>
<inductionLoop id="-25145013#0_det" lane="-25145013#0_0" pos="-5" file="NUL" friendlyPos="True"/>
<inductionLoop id="-25145014#0_det" lane="-25145014#0_0" pos="-5" file="NUL" friendlyPos="True"/>
<inductionLoop id="-25149001#4_det" lane="-25149001#4_0" pos="-5" file="NUL" friendlyPos="True"/>
<inductionLoop id="-25149001#5_det" lane="-25149001#5_0" pos="-5" file="NUL" friendlyPos="True"/>
<inductionLoop id="-25187889_det" lane="-25187889_0" pos="-5" file="NUL" friendlyPos="True"/>
<inductionLoop id="-25187895#0_det" lane="-25187895#0_0" pos="-5" file="NUL" friendlyPos="True"/>
<inductionLoop id="-25187896_det" lane="-25187896_0" pos="-5" file="NUL" friendlyPos="True"/>
<inductionLoop id="-25190140#1_det" lane="-25190140#1_0" pos="-5" file="NUL" friendlyPos="True"/>
<inductionLoop id="-25190140#2_det" lane="-25190140#2_0" pos="-5" file="NUL" friendlyPos="True"/>
<inductionLoop id="-26642362#0_det" lane="-26642362#0_0" pos="-5" file="NUL" friendlyPos="True"/>
<inductionLoop id="-26642362#1_det" lane="-26642362#1_0" pos="-5" file="NUL" friendlyPos="True"/>
<inductionLoop id="-26642362#2_det" lane="-26642362#2_0" pos="-5" file="NUL" friendlyPos="True"/>
<inductionLoop id="-26642362#5_det" lane="-26642362#5_0" pos="-5" file="NUL" friendlyPos="True"/>
<inductionLoop id="-266565295#5_det" lane="-266565295#5_0" pos="-5" file="NUL" friendlyPos="True"/>
<inductionLoop id="-26677213#5_det" lane="-26677213#5_0" pos="-5" file="NUL" friendlyPos="True"/>
<inductionLoop id="-26677214#5_det" lane="-26677214#5_0" pos="-5" file="NUL" friendlyPos="True"/>
<inductionLoop id="-26677216#0_det" lane="-26677216#0_0" pos="-5" file="NUL" friendlyPos="True"/>
<inductionLoop id="-26677416#3_det" lane="-26677416#3_0" pos="-5" file="NUL" friendlyPos="True"/>
<inductionLoop id="-26677416#7_det" lane="-26677416#7_0" pos="-5" file="NUL" friendlyPos="True"/>
<inductionLoop id="-26677417#0_det" lane="-26677417#0_0" pos="-5" file="NUL" friendlyPos="True"/>
<inductionLoop id="-26677417#1_det" lane="-26677417#1_0" pos="-5" file="NUL" friendlyPos="True"/>
<inductionLoop id="-26677539_det" lane="-26677539_0" pos="-5" file="NUL" friendlyPos="True"/>
<inductionLoop id="-26677540#0_det" lane="-26677540#0_0" pos="-5" file="NUL" friendlyPos="True"/>
<inductionLoop id="-26677540#1_det" lane="-26677540#1_0" pos="-5" file="NUL" friendlyPos="True"/>
<inductionLoop id="-26677540#2_det" lane="-26677540#2_0" pos="-5" file="NUL" friendlyPos="True"/>
<inductionLoop id="-26677541_det" lane="-26677541_0" pos="-5" file="NUL" friendlyPos="True"/>
<inductionLoop id="-26677542#0_det" lane="-26677542#0_0" pos="-5" file="NUL" friendlyPos="True"/>
<inductionLoop id="-26677542#1_det" lane="-26677542#1_0" pos="-5" file="NUL" friendlyPos="True"/>
<inductionLoop id="-28111977#10_det" lane="-28111977#10_0" pos="-5" file="NUL" friendlyPos="True"/>
<inductionLoop id="-285549250#1_det" lane="-285549250#1_0" pos="-5" file="NUL" friendlyPos="True"/>
<inductionLoop id="-286646456#0_det" lane="-286646456#0_0" pos="-5" file="NUL" friendlyPos="True"/>
<inductionLoop id="-286646456#2_det" lane="-286646456#2_0" pos="-5" file="NUL" friendlyPos="True"/>
<inductionLoop id="-306240162#1_det" lane="-306240162#1_0" pos="-5" file="NUL" friendlyPos="True"/>
<inductionLoop id="-31395281_det" lane="-31395281_0" pos="-5" file="NUL" friendlyPos="True"/>
<inductionLoop id="-315358242#0_det" lane="-315358242#0_0" pos="-5" file="NUL" friendlyPos="True"/>
<inductionLoop id="-315358242#1_det" lane="-315358242#1_0" pos="-5" file="NUL" friendlyPos="True"/>
<inductionLoop id="-315358242#2_det" lane="-315358242#2_0" pos="-5" file="NUL" friendlyPos="True"/>
<inductionLoop id="-315358245_det" lane="-315358245_0" pos="-5" file="NUL" friendlyPos="True"/>
<inductionLoop id="-315358246_det" lane="-315358246_0" pos="-5" file="NUL" friendlyPos="True"/>
<inductionLoop id="-315358248#1_det" lane="-315358248#1_0" pos="-5" file="NUL" friendlyPos="True"/>
<inductionLoop id="-315358250#0_det" lane="-315358250#0_0" pos="-5" file="NUL" friendlyPos="True"/>
<inductionLoop id="-315358250#1_det" lane="-315358250#1_0" pos="-5" file="NUL" friendlyPos="True"/>
<inductionLoop id="-315358251#0_det" lane="-315358251#0_0" pos="-5" file="NUL" friendlyPos="True"/>
<inductionLoop id="-315358251#1_det" lane="-315358251#1_0" pos="-5" file="NUL" friendlyPos="True"/>
<inductionLoop id="-315358252#1_det" lane="-315358252#1_0" pos="-5" file="NUL" friendlyPos="True"/>
<inductionLoop id="-315358253#0_det" lane="-315358253#0_0" pos="-5" file="NUL" friendlyPos="True"/>
<inductionLoop id="-315358253#1_det" lane="-315358253#1_0" pos="-5" file="NUL" friendlyPos="True"/>
<inductionLoop id="-315358253#2_det" lane="-315358253#2_0" pos="-5" file="NUL" friendlyPos="True"/>
<inductionLoop id="-315358255#4_det" lane="-315358255#4_0" pos="-5" file="NUL" friendlyPos="True"/>
<inductionLoop id="-315358257#0.26_det" lane="-315358257#0.26_0" pos="-5" file="NUL" friendlyPos="True"/>
<inductionLoop id="-315358257#2_det" lane="-315358257#2_0" pos="-5" file="NUL" friendlyPos="True"/>
<inductionLoop id="-315392062#4_det" lane="-315392062#4_0" pos="-5" file="NUL" friendlyPos="True"/>
<inductionLoop id="-32124743_det" lane="-32124743_0" pos="-5" file="NUL" friendlyPos="True"/>
<inductionLoop id="-32124744_det" lane="-32124744_0" pos="-5" file="NUL" friendlyPos="True"/>
<inductionLoop id="-32124745_det" lane="-32124745_0" pos="-5" file="NUL" friendlyPos="True"/>
<inductionLoop id="-32395288#1_det" lane="-32395288#1_0" pos="-5" file="NUL" friendlyPos="True"/>
<inductionLoop id="-32395288#2_det" lane="-32395288#2_0" pos="-5" file="NUL" friendlyPos="True"/>
<inductionLoop id="-32395288#3_det" lane="-32395288#3_0" pos="-5" file="NUL" friendlyPos="True"/>
<inductionLoop id="-32978638#0_det" lane="-32978638#0_0" pos="-5" file="NUL" friendlyPos="True"/>
<inductionLoop id="-32999434#1_det" lane="-32999434#1_0" pos="-5" file="NUL" friendlyPos="True"/>
<inductionLoop id="-37386279_det" lane="-37386279_0" pos="-5" file="NUL" friendlyPos="True"/>
<inductionLoop id="-37681424#0_det" lane="-37681424#0_0" pos="-5" file="NUL" friendlyPos="True"/>
<inductionLoop id="-37681424#1_det" lane="-37681424#1_0" pos="-5" file="NUL" friendlyPos="True"/>
<inductionLoop id="-379897806_det" lane="-379897806_0" pos="-5" file="NUL" friendlyPos="True"/>
<inductionLoop id="-399835085#0_det" lane="-399835085#0_0" pos="-5" file="NUL" friendlyPos="True"/>
<inductionLoop id="-40888350_det" lane="-40888350_0" pos="-5" file="NUL" friendlyPos="True"/>
<inductionLoop id="-40888351#0_det" lane="-40888351#0_0" pos="-5" file="NUL" friendlyPos="True"/>
<inductionLoop id="-40888351#2_det" lane="-40888351#2_0" pos="-5" file="NUL" friendlyPos="True"/>
<inductionLoop id="-40888351#6_det" lane="-40888351#6_0" pos="-5" file="NUL" friendlyPos="True"/>
<inductionLoop id="-40888354#0_det" lane="-40888354#0_0" pos="-5" file="NUL" friendlyPos="True"/>
<inductionLoop id="-40888354#1_det" lane="-40888354#1_0" pos="-5" file="NUL" friendlyPos="True"/>
<inductionLoop id="-40888354#2_det" lane="-40888354#2_0" pos="-5" file="NUL" friendlyPos="True"/>
<inductionLoop id="-40888359_det" lane="-40888359_0" pos="-5" file="NUL" friendlyPos="True"/>
<inductionLoop id="-447569997#0_det" lane="-447569997#0_0" pos="-5" file="NUL" friendlyPos="True"/>
<inductionLoop id="-447569998#1_det" lane="-447569998#1_0" pos="-5" file="NUL" friendlyPos="True"/>
<inductionLoop id="-4942389#0_det" lane="-4942389#0_0" pos="-5" file="NUL" friendlyPos="True"/>
<inductionLoop id="-4942389#1_det" lane="-4942389#1_0" pos="-5" file="NUL" friendlyPos="True"/>
<inductionLoop id="-53396619#3_det" lane="-53396619#3_0" pos="-5" file="NUL" friendlyPos="True"/>
<inductionLoop id="-53396619#4_det" lane="-53396619#4_0" pos="-5" file="NUL" friendlyPos="True"/>
<inductionLoop id="-53396619#5_det" lane="-53396619#5_0" pos="-5" file="NUL" friendlyPos="True"/>
<inductionLoop id="-53396619#6_det" lane="-53396619#6_0" pos="-5" file="NUL" friendlyPos="True"/>
<inductionLoop id="-54169231#0_det" lane="-54169231#0_0" pos="-5" file="NUL" friendlyPos="True"/>
<inductionLoop id="-54169231#1_det" lane="-54169231#1_0" pos="-5" file="NUL" friendlyPos="True"/>
<inductionLoop id="-54169231#2_det" lane="-54169231#2_0" pos="-5" file="NUL" friendlyPos="True"/>
<inductionLoop id="-612075153#0_det" lane="-612075153#0_0" pos="-5" file="NUL" friendlyPos="True"/>
<inductionLoop id="-612075153#1_det" lane="-612075153#1_0" pos="-5" file="NUL" friendlyPos="True"/>
<inductionLoop id="-653473568#0_det" lane="-653473568#0_0" pos="-5" file="NUL" friendlyPos="True"/>
<inductionLoop id="-653473568#1_det" lane="-653473568#1_0" pos="-5" file="NUL" friendlyPos="True"/>
<inductionLoop id="-653473569#0_det" lane="-653473569#0_0" pos="-5" file="NUL" friendlyPos="True"/>
<inductionLoop id="-653473569#1_det" lane="-653473569#1_0" pos="-5" file="NUL" friendlyPos="True"/>
<inductionLoop id="-653473569#2_det" lane="-653473569#2_0" pos="-5" file="NUL" friendlyPos="True"/>
<inductionLoop id="-653473569#4_det" lane="-653473569#4_0" pos="-5" file="NUL" friendlyPos="True"/>
<inductionLoop id="-653473569#5_det" lane="-653473569#5_0" pos="-5" file="NUL" friendlyPos="True"/>
<inductionLoop id="-83304175#2_det" lane="-83304175#2_0" pos="-5" file="NUL" friendlyPos="True"/>
<inductionLoop id="104010475#0_det" lane="104010475#0_0" pos="-5" file="NUL" friendlyPos="True"/>
<inductionLoop id="104012170_det" lane="104012170_0" pos="-5" file="NUL" friendlyPos="True"/>
<inductionLoop id="10425609#0_det" lane="10425609#0_0" pos="-5" file="NUL" friendlyPos="True"/>
<inductionLoop id="10425609#1_det" lane="10425609#1_0" pos="-5" file="NUL" friendlyPos="True"/>
<inductionLoop id="10427692#5_det" lane="10427692#5_0" pos="-5" file="NUL" friendlyPos="True"/>
<inductionLoop id="10427692#6_det" lane="10427692#6_0" pos="-5" file="NUL" friendlyPos="True"/>
<inductionLoop id="10427692#7_det" lane="10427692#7_0" pos="-5" file="NUL" friendlyPos="True"/>
<inductionLoop id="10427692#7.50_det" lane="10427692#7.50_0" pos="-5" file="NUL" friendlyPos="True"/>
<inductionLoop id="10427692#8_det" lane="10427692#8_0" pos="-5" file="NUL" friendlyPos="True"/>
<inductionLoop id="128361109#1_det" lane="128361109#1_0" pos="-5" file="NUL" friendlyPos="True"/>
<inductionLoop id="128361109#3_det" lane="128361109#3_0" pos="-5" file="NUL" friendlyPos="True"/>
<inductionLoop id="128361109#4_det" lane="128361109#4_0" pos="-5" file="NUL" friendlyPos="True"/>
<inductionLoop id="129379918#0_det" lane="129379918#0_0" pos="-5" file="NUL" friendlyPos="True"/>
<inductionLoop id="129379920#0_det" lane="129379920#0_0" pos="-5" file="NUL" friendlyPos="True"/>
<inductionLoop id="129379920#1_det" lane="129379920#1_0" pos="-5" file="NUL" friendlyPos="True"/>
<inductionLoop id="129379921#0_det" lane="129379921#0_0" pos="-5" file="NUL" friendlyPos="True"/>
<inductionLoop id="129379921#1_det" lane="129379921#1_0" pos="-5" file="NUL" friendlyPos="True"/>
<inductionLoop id="129379922_det" lane="129379922_0" pos="-5" file="NUL" friendlyPos="True"/>
<inductionLoop id="129379925_det" lane="129379925_0" pos="-5" file="NUL" friendlyPos="True"/>
<inductionLoop id="129379967#0_det" lane="129379967#0_0" pos="-5" file="NUL" friendlyPos="True"/>
<inductionLoop id="129379968_det" lane="129379968_0" pos="-5" file="NUL" friendlyPos="True"/>
<inductionLoop id="136436466_det" lane="136436466_0" pos="-5" file="NUL" friendlyPos="True"/>
<inductionLoop id="136436468#1_det" lane="136436468#1_0" pos="-5" file="NUL" friendlyPos="True"/>
<inductionLoop id="137132993#0_det" lane="137132993#0_0" pos="-5" file="NUL" friendlyPos="True"/>
<inductionLoop id="137132994#0_det" lane="137132994#0_0" pos="-5" file="NUL" friendlyPos="True"/>
<inductionLoop id="137132994#1_det" lane="137132994#1_0" pos="-5" file="NUL" friendlyPos="True"/>
<inductionLoop id="137132996_det" lane="137132996_0" pos="-5" file="NUL" friendlyPos="True"/>
<inductionLoop id="137133006#0_det" lane="137133006#0_0" pos="-5" file="NUL" friendlyPos="True"/>
<inductionLoop id="137133006#1_det" lane="137133006#1_0" pos="-5" file="NUL" friendlyPos="True"/>
<inductionLoop id="137454133#0_det" lane="137454133#0_0" pos="-5" file="NUL" friendlyPos="True"/>
<inductionLoop id="137454133#1_det" lane="137454133#1_0" pos="-5" file="NUL" friendlyPos="True"/>
<inductionLoop id="137454133#2_det" lane="137454133#2_0" pos="-5" file="NUL" friendlyPos="True"/>
<inductionLoop id="137685155#0_det" lane="137685155#0_0" pos="-5" file="NUL" friendlyPos="True"/>
<inductionLoop id="138300620#0_det" lane="138300620#0_0" pos="-5" file="NUL" friendlyPos="True"/>
<inductionLoop id="160314345#0_det" lane="160314345#0_0" pos="-5" file="NUL" friendlyPos="True"/>
<inductionLoop id="160314345#1_det" lane="160314345#1_0" pos="-5" file="NUL" friendlyPos="True"/>
<inductionLoop id="160314345#2_det" lane="160314345#2_0" pos="-5" file="NUL" friendlyPos="True"/>
<inductionLoop id="160314345#3_det" lane="160314345#3_0" pos="-5" file="NUL" friendlyPos="True"/>
<inductionLoop id="160314345#4_det" lane="160314345#4_0" pos="-5" file="NUL" friendlyPos="True"/>
<inductionLoop id="160314346#0_det" lane="160314346#0_0" pos="-5" file="NUL" friendlyPos="True"/>
<inductionLoop id="160314346#1_det" lane="160314346#1_0" pos="-5" file="NUL" friendlyPos="True"/>
<inductionLoop id="160314351#0_det" lane="160314351#0_0" pos="-5" file="NUL" friendlyPos="True"/>
<inductionLoop id="160314351#1_det" lane="160314351#1_0" pos="-5" file="NUL" friendlyPos="True"/>