<routes>
<vType id="Human" color="red" guiShape="passenger/sedan"/>
<vType id="AV" color="yellow"/>
<route id="0_0_0" edges="
315358244 379897807 137685155#0 129379968 -201950263#10 -201950263#6 -201950259#6 -201950259#3 -26677213#5 136436468#1 -201201945#1 -201201945#0 -201201945#0.78 -174800513 -201238718#1 -201238724 24634510#0 24634510#1 24634510#6 204588664#0 -23436553#2 -23436553#1 -22690205#1 233675413#4 -25145011#2 -25145011#0 -653473569#2 -653473569#1 -25149001#5 -25149001#4
" />
<route id="0_0_1" edges="
315358244 379897807 137685155#0 129379968 -201950263#10 -201950263#6 -201950259#6 -201950259#3 -26677213#5 136436468#1 -201201945#1 -201201945#0 -201201945#0.78 -174800513 -201238718#1 -201238724 24634510#0 24634510#1 24634510#6 204588664#0 -23436553#2 -23436553#1 -22690205#1 233675413#4 -25145011#2 -25145012#5 22716069#2 -653473569#1 -25149001#5 -25149001#4
" />
<route id="0_0_2" edges="
315358244 379897807 137685155#0 129379968 -201950263#10 26677542#0 26677542#1 -26677214#5 26677216#0 26677216#1 26677216#2 26677216#3 23166741#5 -174800513 -201238718#1 -201238724 24634510#0 24634510#1 24634510#6 204588664#0 -23436553#2 -23436553#1 -22690205#1 233675413#4 -25145011#2 -25145011#0 -653473569#2 -653473569#1 -25149001#5 -25149001#4
" />
<route id="0_0_3" edges="
315358244 379897807 137685155#0 129379968 -201950263#10 26677542#0 26677542#1 -26677214#5 26677216#0 26677216#1 26677216#2 26677216#3 23166741#5 -174800513 -201238718#1 -201238724 24634510#0 24634510#1 24634510#6 204588664#0 -23436553#2 -23436553#1 -22690205#1 233675413#4 -25145011#2 -25145012#5 22716069#2 -653473569#1 -25149001#5 -25149001#4
" />
<route id="0_2_0" edges="
315358244 379897807 137685155#0 129379968 -201950263#10 26677542#0 26677542#1 -26677214#5 26677216#0 26677216#1 26677216#2 26677216#3 23166741#5 -174800513 -201238718#1 -201238718#0 -315392062#4 -24693977#1 -24693977#0 -32999434#1 32999110#0 402600768#0 402600768#1 51857517#0 51857517#0.33 51857517#1 51857518#1 32978638#0
" />
<route id="0_2_1" edges="
315358244 379897807 137685155#0 129379968 -201950263#10 -201950263#6 -201950259#6 -201950259#3 -26677213#5 136436468#1 -201201945#1 -201201945#0 -201201945#0.78 -174800513 -201238718#1 -201238718#0 -315392062#4 -24693977#1 -24693977#0 -32999434#1 32999110#0 402600768#0 402600768#1 51857517#0 51857517#0.33 51857517#1 51857518#1 32978638#0
" />
<route id="0_2_2" edges="
315358244 379897807 137685155#0 129379968 -201950263#10 -201950263#6 -201950259#6 -201950259#3 -26677213#5 136436468#1 -201201945#1 -201201945#0 -201201945#0.78 -174800513 201201950#0 -24634411 160314345#1 160314345#2 24634414#2 24634416 315358253#1 315358253#2 402600768#0 402600768#1 51857517#0 51857517#0.33 51857517#1 51857518#1 32978638#0
" />
<route id="0_2_3" edges="
315358244 379897807 137685155#0 129379968 -201950263#10 -201950263#6 -201950259#6 -201950259#3 -26677213#5 136436468#1 -201201945#1 -201201945#0 -201201945#0.78 -174800513 201201950#0 -24634411 -160314345#0 -315392062#4 -24693977#1 -24693977#0 -32999434#1 32999110#0 402600768#0 402600768#1 51857517#0 51857517#0.33 51857517#1 51857518#1 32978638#0
" />
<route id="0_3_0" edges="
315358244 379897807 137685155#0 129379921#0 129379921#1 129379920#0 129379920#1 315358246 129379922 315358252#0 129379918#0 129379925 315358242#0 315358242#1 315358242#2 315358242#3 315358251#1 136436466 386687235
" />
<route id="0_3_1" edges="
315358244 379897807 137685155#0 129379968 -201950263#10 26677542#0 -26677417#1 -26677417#0 26677416#2 26677416#3 26677416#4 40888351#3 129379925 315358242#0 315358242#1 315358242#2 315358242#3 315358251#1 136436466 386687235
" />
<route id="0_3_2" edges="
315358244 379897807 137685155#0 129379968 -201950263#10 26677542#0 26677542#1 201950250#0 201950250#1 -26677539 26677416#4 40888351#3 129379925 315358242#0 315358242#1 315358242#2 315358242#3 315358251#1 136436466 386687235
" />
<route id="0_3_3" edges="
315358244 164078530 379897806 315358250#0 315358250#1 129379921#0 129379921#1 129379920#0 129379920#1 315358246 129379922 315358252#0 129379918#0 129379925 315358242#0 315358242#1 315358242#2 315358242#3 315358251#1 136436466 386687235
" />
<route id="0_12_0" edges="
315358244 379897807 137685155#0 129379921#0 129379921#1 129379920#0 129379920#1 315358246 129379922 315358252#0 447569997#0 447569997#1
" />
<route id="0_12_1" edges="
315358244 164078530 379897806 315358250#0 315358250#1 129379921#0 129379921#1 129379920#0 129379920#1 315358246 129379922 315358252#0 447569997#0 447569997#1
" />
<route id="0_12_2" edges="
315358244 379897807 137685155#0 129379968 -201950263#10 26677542#0 26677542#1 201950250#0 201950250#1 -26677539 26677416#4 40888351#3 -129379918#1 447569997#0 447569997#1
" />
<route id="0_12_3" edges="
315358244 379897807 137685155#0 129379968 -201950263#10 26677542#0 -26677417#1 -26677417#0 26677416#2 26677416#3 26677416#4 40888351#3 -129379918#1 447569997#0 447569997#1
" />
<route id="1_1_0" edges="
10425609#0 10425609#1 201963537#1 -164051413 -653473569#5 -653473569#4 25145011#0 -25145012#5 -22716069#1 25145014#0 25145014#1 25187891 -136728347#4 -26642362#5 -22716072#5 -22716072#3 -18809672#1 -285549250#1 -128361102#1
" />
<route id="1_1_1" edges="
10425609#0 10425609#1 25149219#1 391891458#0 -653473569#5 -653473569#4 -653473569#2 -22716069#2 -22716069#1 -22716069#0 -233675413#1 -233675413#0 -136728347#4 -26642362#5 -22716072#5 -22716072#3 -18809672#1 -285549250#1 -128361102#1
" />
<route id="1_1_2" edges="
10425609#0 10425609#1 25149219#1 391891458#0 -653473569#5 25145013#0 -25145012#6 -25145012#5 -22716069#1 -22716069#0 -233675413#1 -233675413#0 -136728347#4 -26642362#5 -22716072#5 -22716072#3 -18809672#1 -285549250#1 -128361102#1
" />
<route id="1_1_3" edges="
10425609#0 10425609#1 201963537#1 -164051413 -653473569#5 -653473569#4 -653473569#2 -22716069#2 -22716069#1 -22716069#0 -233675413#1 -233675413#0 -136728347#4 -26642362#5 -22716072#5 -22716072#3 -18809672#1 -285549250#1 -128361102#1
" />
<route id="2_2_0" edges="
24608844 32124634 32124637#1 51857518#1 32978638#0
" />
<route id="2_2_1" edges="
24608844 32124634 32124637#1 168702040#1 168702040#2 -24608846#1 -24608846#0 -160314345#5 315358248#0 315358253#0 315358253#1 315358253#2 402600768#0 402600768#1 51857517#0 51857517#0.33 51857517#1 51857518#1 32978638#0
" />
<route id="2_2_2" edges="
24608844 32124634 32124637#1 168702040#1 168702040#2 168702040#3 168702040#4 168702039#1 -24634414#5 -37386279 -24634413#2 -24634413#1 -160314345#1 24634411 201201950#1 201201950#2 24634413#0 24634413#1 24634413#2 37386279 24634414#5 24634414#5.51 32999110#0 402600768#0 402600768#1 51857517#0 51857517#0.33 51857517#1 51857518#1 32978638#0
" />
<route id="2_2_3" edges="
24608844 32124634 32124637#1 168702040#1 168702040#2 -24608846#1 -24608846#0 -160314345#5 315358248#0 315358253#0 315358253#1 315358253#2 168702039#1 -24634414#5 -37386279 -24634413#2 -24634413#1 -160314345#1 24634411 201201950#1 201201950#2 201201950#3 201201950#4 386687239#0 24634417 160314345#4 -315358245 -202092675.36 -4942389#1 -4942389#0 -136436466 386687242 23166741#0 -40888350 -201950247#6 -201950247#5 -201950247#4 53396619#5 53396619#6 26677216#3 23166741#5 -174800513 -201238718#1 -201238724 -24634505 -24608845 -160314351#1 -160314351#0 -24634506#2 -31395281 31395281 24634506#2 -24634509#7 -24634509#0 -22716549#6 -201089423#1 -32999434#1 32999110#0 402600768#0 402600768#1 51857517#0 51857517#0.33 51857517#1 51857518#1 32978638#0
" />
<route id="3_3_0" edges="
315358250#0 315358250#1 129379921#0 129379921#1 129379920#0 129379920#1 315358246 129379922 315358252#0 129379918#0 129379925 315358242#0 315358242#1 315358242#2 315358242#3 315358251#1 136436466 386687235
" />
<route id="3_3_1" edges="
315358250#0 315358250#1 129379968 -201950263#10 26677542#0 26677542#1 201950250#0 201950250#1 -26677539 26677416#4 40888351#3 129379925 315358242#0 315358242#1 315358242#2 315358242#3 315358251#1 136436466 386687235
" />
<route id="3_3_2" edges="
315358250#0 315358250#1 129379968 -201950263#10 26677542#0 -26677417#1 -26677417#0 26677416#2 26677416#3 26677416#4 40888351#3 129379925 315358242#0 315358242#1 315358242#2 315358242#3 315358251#1 136436466 386687235
" />
<route id="3_3_3" edges="
315358250#0 315358250#1 129379968 -201950263#10 26677542#0 26677542#1 -26677214#5 26677216#0 26677216#1 26677216#2 -53396619#6 -53396619#5 201950247#4 201950247#5 201950247#6 201950247#7 201950247#8 315358242#3 315358251#1 136436466 386687235
" />
<route id="4_3_0" edges="
-306240162#1 -170018165#3 -170018165#2.164 -170018165#2.210 -170018165#1 -170018165#0 137133006#0 137133006#1 201238730 176550249#0 176550249#1 176550249#2 176550249#3 176550249#4 201201950#0 -24634411 160314345#1 160314345#2 160314345#3 -24634417 386687239#1 202092676#0 386687235
" />
<route id="4_3_1" edges="
-306240162#1 -170018165#3 -170018165#2.164 -170018165#2.210 -170018165#1 -170018165#0 137133006#0 137133006#1 201238730 176550249#0 176550249#1 176550249#2 176550249#3 176550249#4 201201950#0 201201950#1 201201950#2 201201950#3 201201950#4 386687239#0 386687239#1 202092676#0 386687235
" />
<route id="4_3_2" edges="
-306240162#1 -170018165#3 -170018165#2.164 -170018165#2.210 -170018165#1 -170018165#0 137133006#0 137133006#1 201238730 176550249#0 176550249#1 176550249#2 176550249#3 176550249#4 201201950#0 -24634411 160314345#1 -24634413#0 201201950#3 201201950#4 386687239#0 386687239#1 202092676#0 386687235
" />
<route id="4_3_3" edges="
-306240162#1 -170018165#3 -170018165#2.164 -170018165#2.210 -170018165#1 -170018165#0 137133006#0 137133006#1 201238730 176550249#0 176550249#1 176550249#2 176550249#3 176550249#4 201201950#0 201201950#1 201201950#2 24634413#0 160314345#2 160314345#3 -24634417 386687239#1 202092676#0 386687235
" />
<route id="4_4_0" edges="
-306240162#1 -224251776#1 224251774#0 224251774#1 286646456#0 286646456#1 315358255#0 -612075153#1 -612075153#0 399835085#0 399835085#1
" />
<route id="4_4_1" edges="
-306240162#1 -170018165#3 -170018165#2.164 -170018165#2.210 -170018165#1 -224892361#8 -224892361#6 224892339#0 315358255#0 -612075153#1 -612075153#0 399835085#0 399835085#1
" />
<route id="4_4_2" edges="
-306240162#1 -224251776#1 224251774#0 224251774#1 286646456#0 224892361#1 224892361#2 224892339#0 315358255#0 -612075153#1 -612075153#0 399835085#0 399835085#1
" />
<route id="4_4_3" edges="
-306240162#1 -224251776#1 224251774#0 224251774#1 286646456#0 286646456#1 -224892339#3 -224892361#2 -224892361#1 -286646456#0 -224251774#1 -224251774#0 224251776#0 -170018165#3 -170018165#2.164 -170018165#2.210 -170018165#1 -224892361#8 -224892361#6 224892339#0 315358255#0 -612075153#1 -612075153#0 399835085#0 399835085#1
" />
<route id="4_16_0" edges="
-306240162#1 -170018165#3 -170018165#2.164 -170018165#2.210 -170018165#1 -170018165#0 137133006#0 137133006#1 -201238726#1 -201238726#0 -201238726#0.98 -10427692#8 -10427692#7 -10427692#6 -10427692#5 -10427692#4 -10427692#3 -10427692#2 -10427692#1 18809672#0 18809672#2 18809672#5 -37681424#1 -37681424#0 37681425#7 201963522#5 201963522#6 25122731#0 30482614 30482615#1
" />
<route id="4_16_1" edges="
-306240162#1 -170018165#3 -170018165#2.164 -170018165#2.210 -170018165#1 -170018165#0 137133006#0 137133006#1 -201238726#1 -201238726#0 -201238726#0.98 -10427692#8 -10427692#7 -10427692#6 -10427692#5 -10427692#4 -10427692#3 -10427692#2 -10427692#1 18809672#0 18809672#2 170425366#0 18809672#7 28111977#0 -37681424#0 37681425#7 201963522#5 201963522#6 25122731#0 30482614 30482615#1
" />
<route id="4_16_2" edges="
-306240162#1 -170018165#3 -170018165#2.164 -170018165#2.210 -170018165#1 -170018165#0 137133006#0 137133006#1 -201238726#1 -201238726#0 -201238726#0.98 -10427692#8 -10427692#7 -10427692#6 -10427692#5 -10427692#4 -10427692#3 -10427692#2 -10427692#1 18809672#0 22716072#0 22716073 -26642362#2 -26642362#1 -26642362#0 -25136986 -18813598#6 -18813598#1 25122731#0 30482614 30482615#1
" />
<route id="4_16_3" edges="
-306240162#1 -170018165#3 -170018165#2.164 -170018165#2.210 -170018165#1 -170018165#0 137133006#0 137133006#1 -201238726#1 -201238726#0 -201238726#0.98 -10427692#8 -10427692#7 -10427692#6 -10427692#5 -10427692#4 -10427692#3 -10427692#2 -10427692#1 18809672#0 18809672#2 170425366#0 -18809672#6 -37681424#1 -37681424#0 37681425#7 201963522#5 201963522#6 25122731#0 30482614 30482615#1
" />
<route id="4_18_0" edges="
-306240162#1 -170018165#3 -170018165#2.164 -170018165#2.210 -170018165#1 -170018165#0 137133006#0 137133006#1 201238730 176550249#0 176550249#1 176550249#2 138300620#0 24634510#6
" />
<route id="4_18_1" edges="
-306240162#1 -170018165#3 -170018165#2.164 -170018165#2.210 -170018165#1 -170018165#0 137133006#0 137133006#1 -201238726#1 -201238726#0 -201238726#0.98 -24634510#18 24634514#0 -24634514#1 -24634510#15 24634513#0 24634513#6 176550249#1 176550249#2 138300620#0 24634510#6
" />
<route id="4_18_2" edges="
-306240162#1 -170018165#3 -170018165#2.164 -170018165#2.210 -170018165#1 -170018165#0 137133006#0 137133006#1 -201238726#1 -201238726#0 -201238726#0.98 -24634510#18 -24634510#15 24634513#0 24634513#6 176550249#1 176550249#2 138300620#0 24634510#6
" />
<route id="4_18_3" edges="
-306240162#1 -224251776#1 224251774#0 224251774#1 286646456#0 286646456#1 -224892339#3 224892361#3 224892361#7 -170018165#0 137133006#0 137133006#1 201238730 176550249#0 176550249#1 176550249#2 138300620#0 24634510#6
" />
<route id="5_2_0" edges="
201201950#1 201201950#2 24634413#0 160314345#2 24634414#2 24634416 315358253#1 315358253#2 402600768#0 402600768#1 51857517#0 51857517#0.33 51857517#1 51857518#1 32978638#0
" />
<route id="5_2_1" edges="
201201950#1 201201950#2 201201950#3 24634414#1 24634414#2 24634416 315358253#1 315358253#2 402600768#0 402600768#1 51857517#0 51857517#0.33 51857517#1 51857518#1 32978638#0
" />
<route id="5_2_2" edges="
201201950#1 201201950#2 24634413#0 24634413#1 24634413#2 37386279 24634414#5 24634414#5.51 32999110#0 402600768#0 402600768#1 51857517#0 51857517#0.33 51857517#1 51857518#1 32978638#0
" />
<route id="5_2_3" edges="
201201950#1 201201950#2 24634413#0 -160314345#1 -160314345#0 -315392062#4 -24693977#1 -24693977#0 -32999434#1 32999110#0 402600768#0 402600768#1 51857517#0 51857517#0.33 51857517#1 51857518#1 32978638#0
" />
<route id="6_5_0" edges="
201201953#4 201201953#10 201201953#12 176550246 -201238726#1 -201238726#0 -201238726#0.98 -24634510#18 -24634510#15 -24634510#8 -24634510#6 -24634510#5 -24634510#0 201238724 -201238718#0 -315392062#4 -24693977#1 -24693977#0 -32999434#1 32999110#0 402600768#0 402600768#1 51857517#0 51857517#0.33 51857517#1 51857516#1 -266565295#5
" />
<route id="6_5_1" edges="
201201953#4 201201953#10 201201953#12 176550246 201238719#0 137133006#0 137133006#1 201238730 176550249#0 176550249#1 176550249#2 176550249#3 176550249#4 -201238718#1 -201238718#0 -315392062#4 -24693977#1 -24693977#0 -32999434#1 32999110#0 402600768#0 402600768#1 51857517#0 51857517#0.33 51857517#1 51857516#1 -266565295#5
" />
<route id="6_5_2" edges="
201201953#4 201201953#10 201201953#12 176550246 -201238726#1 -201238726#0 -201238726#0.98 -24634510#18 -24634510#15 -24634510#8 -24634510#6 -138300620#6 176550249#3 176550249#4 -201238718#1 -201238718#0 -315392062#4 -24693977#1 -24693977#0 -32999434#1 32999110#0 402600768#0 402600768#1 51857517#0 51857517#0.33 51857517#1 51857516#1 -266565295#5
" />
<route id="6_5_3" edges="
201201953#4 201201953#10 201201953#12 176550246 201238719#0 137133006#0 137133006#1 201238730 176550249#0 176550249#1 176550249#2 138300620#0 -24634510#5 -24634510#0 201238724 -201238718#0 -315392062#4 -24693977#1 -24693977#0 -32999434#1 32999110#0 402600768#0 402600768#1 51857517#0 51857517#0.33 51857517#1 51857516#1 -266565295#5
" />
<route id="7_4_0" edges="
272042143 23166741#0 23166741#2 23166741#5 201201953#0 40888360#0 -22724699#1 201201945#3 201201945#7 201201945#8 201089420#0 315358257#0 315358257#0.43 -612075153#1 -612075153#0 399835085#0 399835085#1
" />
<route id="7_4_1" edges="
272042143 23166741#0 23166741#2 23166741#5 201201945#0 201201945#1 201201945#2 201201945#3 201201945#7 -40888359 201089420#0 315358257#0 315358257#0.43 -612075153#1 -612075153#0 399835085#0 399835085#1
" />
<route id="7_4_2" edges="
272042143 23166741#0 23166741#2 23166741#5 201201953#0 40888360#0 -22724699#1 201201945#3 201201945#7 -40888359 201089420#0 315358257#0 315358257#0.43 -612075153#1 -612075153#0 399835085#0 399835085#1
" />
<route id="7_4_3" edges="
272042143 23166741#0 23166741#2 23166741#5 201201945#0 201201945#1 201201945#2 201201945#3 201201945#7 201201945#8 201089420#0 315358257#0 315358257#0.43 -612075153#1 -612075153#0 399835085#0 399835085#1
" />
<route id="7_6_0" edges="
272042143 23166741#0 24634414#0 24634414#1
" />
<route id="7_6_1" edges="
272042143 23166741#0 23166741#2 23166741#5 -174800513 201201950#0 201201950#1 201201950#2 201201950#3 24634414#1
" />
<route id="7_6_2" edges="
272042143 23166741#0 23166741#2 23166741#5 -174800513 201201950#0 -24634411 160314345#1 -24634413#0 201201950#3 24634414#1
" />
<route id="7_6_3" edges="
272042143 23166741#0 23166741#2 23166741#5 -174800513 -201238718#1 -201238718#0 160314345#0 160314345#1 -24634413#0 201201950#3 24634414#1
" />
<route id="7_9_0" edges="
272042143 23166741#0 23166741#2 23166741#5 201201953#0 201201953#2 201201953#4 201201953#10 201201953#12 176550246 201238729#1 201238729#2 201238729#3
" />
<route id="7_9_1" edges="
272042143 23166741#0 23166741#2 23166741#5 201201953#0 201201953#2 201201953#4 201201953#10 201201953#12 176550246 201238719#0 137133006#0 175770996#0 201238729#3
" />
<route id="7_9_2" edges="
272042143 23166741#0 23166741#2 23166741#5 201201953#0 40888360#0 22724699#2 173203413#0 201201953#4 201201953#10 201201953#12 176550246 201238729#1 201238729#2 201238729#3
" />
<route id="7_9_3" edges="
272042143 23166741#0 23166741#2 23166741#5 201201953#0 201201953#2 201201953#4 201201953#10 201201953#12 176550246 201238719#0 137133006#0 137133006#1 201238729#1 201238729#2 201238729#3
" />
<route id="7_10_0" edges="
272042143 23166741#0 23166741#2 23166741#5 201201953#0 201201953#2 201201953#4 201201953#10 201201953#12 176550246 201238719#0 170018165#0 170018165#1 170018165#2 170018165#2.175 306240162#0
" />
<route id="7_10_1" edges="
272042143 23166741#0 23166741#2 23166741#5 201201953#0 40888360#0 22724699#2 173203413#0 201201953#4 201201953#10 201201953#12 176550246 201238719#0 170018165#0 170018165#1 170018165#2 170018165#2.175 306240162#0
" />
<route id="7_10_2" edges="
272042143 23166741#0 23166741#2 23166741#5 201201945#0 201201945#1 201201945#2 22724699#0 22724699#2 173203413#0 201201953#4 201201953#10 201201953#12 176550246 201238719#0 170018165#0 170018165#1 170018165#2 170018165#2.175 306240162#0
" />
<route id="7_10_3" edges="
272042143 23166741#0 23166741#2 23166741#5 201201953#0 40888360#0 -22724699#1 201201945#3 201201945#7 201201945#8 201089420#0 315358257#0 315358257#0.43 -315358255#4 -224892339#3 224892361#3 224892361#7 170018165#1 170018165#2 170018165#2.175 306240162#0
" />
<route id="8_7_0" edges="
266565295#5 32999435 32124637#0 32124637#1 168702040#1 168702040#2 168702040#3 168702040#4 168702039#1 -24634414#5 -24634414#4 24634415 -24634415
" />
<route id="8_7_1" edges="
266565295#5 32999435 32124637#0 32124637#1 168702040#1 168702040#2 -24608846#1 -24608846#0 -160314345#5 -160314345#4 -160314345#3 24634414#2 24634414#3 24634415 -24634415
" />
<route id="8_7_2" edges="
266565295#5 32999435 32124637#0 32124637#1 168702040#1 168702040#2 168702040#3 168702040#4 -315358253#2 -315358253#1 -315358253#0 -315358248#1 -160314345#4 -160314345#3 24634414#2 24634414#3 24634415 -24634415
" />
<route id="8_7_3" edges="
266565295#5 32999435 32124637#0 32124637#1 168702040#1 168702040#2 -24608846#1 -24608846#0 -160314345#5 -160314345#4 -160314345#3 -160314345#2 -24634413#0 201201950#3 24634414#1 24634414#2 24634414#3 24634415 -24634415
" />
<route id="8_9_0" edges="
266565295#5 32999435 32124637#0 32124637#1 168702040#1 168702040#2 168702040#3 168702040#4 168702039#1 32999434#0 24693977#0 24693977#1 315392062#0 201238718#0 201238718#1 174800513 201201953#0 201201953#2 201201953#4 201201953#10 201201953#12 176550246 201238729#1 201238729#2 201238729#3
" />
<route id="8_9_1" edges="
266565295#5 32999435 32124637#0 32124637#1 168702040#1 168702040#2 -24608846#1 -24608846#0 -160314345#5 -160314345#4 -160314345#3 -24634414#1 -24634414#0 23166741#2 23166741#5 201201953#0 201201953#2 201201953#4 201201953#10 201201953#12 176550246 201238729#1 201238729#2 201238729#3
" />
<route id="8_9_2" edges="
266565295#5 32999435 32124637#0 32124637#1 168702040#1 168702040#2 -24608846#1 -24608846#0 -160314345#5 -160314345#4 -160314345#3 -24634414#1 -24634414#0 23166741#2 23166741#5 201201953#0 201201953#2 201201953#4 201201953#10 201201953#12 176550246 201238719#0 137133006#0 175770996#0 201238729#3
" />
<route id="8_9_3" edges="
266565295#5 32999435 32124637#0 32124637#1 168702040#1 168702040#2 168702040#3 168702040#4 168702039#1 -24634414#5 -24634414#4 -24634414#3 -24634414#2 -24634414#1 -24634414#0 23166741#2 23166741#5 201201953#0 201201953#2 201201953#4 201201953#10 201201953#12 176550246 201238729#1 201238729#2 201238729#3
" />
<route id="8_15_0" edges="
266565295#5 32999435 32124637#0 32124637#1 168702040#1 168702040#2 168702040#3 168702040#4 168702039#1 32999434#0 201089423#0 22716549#0 24634509#0 24634509#1 -24634506#2
" />
<route id="8_15_1" edges="
266565295#5 32999435 32124637#0 32124637#1 168702040#1 168702040#2 168702040#3 168702040#4 168702039#1 32999434#0 24693977#0 24693977#1 -24634508 -24634507 24634509#1 -24634506#2
" />
<route id="8_15_2" edges="
266565295#5 32999435 32124637#0 32124637#1 168702040#1 168702040#2 -24608846#1 -24608846#0 -160314345#5 -160314345#4 -160314345#3 -160314345#2 -160314345#1 -160314345#0 -315392062#4 -24634508 -24634507 24634509#1 -24634506#2
" />
<route id="8_15_3" edges="
266565295#5 32999435 32124637#0 32124637#1 168702040#1 168702040#2 168702040#3 168702040#4 168702039#1 32999434#0 24693977#0 24693977#1 315392062#0 -160314346#1 -160314346#0 -24608845 -160314351#1 -160314351#0 -24634506#2
" />
<route id="9_8_0" edges="
22716069#0 25145014#0 25145014#1 25187891 -136728347#4 -201963533#5 -201963533#4 24634517#1 24634517#4 24634517#6 24634517#8 24634517#9 24634517#13
" />
<route id="9_8_1" edges="
22716069#0 25145014#0 25145014#1 25187891 -136728347#4 -201963533#5 -201963533#4 24634517#1 24634517#4 24634517#6 24634517#8 24634521#0 24634521#1 24634521#2 24634517#13
" />
<route id="9_8_2" edges="
22716069#0 25145014#0 25145014#1 25187891 -136728347#4 -201963533#5 -201963533#4 24634517#1 24634517#4 24634517#6 24634517#8 24634521#0 218647954 24634521#2 24634517#13
" />
<route id="9_8_3" edges="
22716069#0 25145014#0 25145014#1 25187891 -136728347#4 -201963533#5 -201963533#4 24634517#1 24634517#4 24634517#6 24634519 -24634519 24634517#8 24634517#9 24634517#13
" />
<route id="10_5_0" edges="
24634507 24634508 -24693977#1 -24693977#0 -32999434#1 32999110#0 402600768#0 402600768#1 51857517#0 51857517#0.33 51857517#1 51857516#1 -266565295#5
" />
<route id="10_5_1" edges="
24634507 24634508 -24693977#1 -24693977#0 -32999434#1 -24634414#5 -24634414#4 -24634414#3 24634416 315358253#1 315358253#2 402600768#0 402600768#1 51857517#0 51857517#0.33 51857517#1 51857516#1 -266565295#5
" />
<route id="10_5_2" edges="
24634507 24634508 315392062#0 160314345#0 160314345#1 24634413#1 24634413#2 37386279 24634414#5 24634414#5.51 32999110#0 402600768#0 402600768#1 51857517#0 51857517#0.33 51857517#1 51857516#1 -266565295#5
" />
<route id="10_5_3" edges="
24634507 24634508 315392062#0 160314345#0 160314345#1 160314345#2 24634414#2 24634416 315358253#1 315358253#2 402600768#0 402600768#1 51857517#0 51857517#0.33 51857517#1 51857516#1 -266565295#5
" />
<route id="11_2_0" edges="
128361109#1 128361109#3 128361109#4 201238730 176550249#0 176550249#1 176550249#2 176550249#3 176550249#4 -201238718#1 -201238718#0 -315392062#4 -24693977#1 -24693977#0 -32999434#1 32999110#0 402600768#0 402600768#1 51857517#0 51857517#0.33 51857517#1 51857518#1 32978638#0
" />
<route id="11_2_1" edges="
128361109#1 128361109#3 128361109#4 201238730 176550249#0 176550249#1 176550249#2 176550249#3 176550249#4 201201950#0 -24634411 160314345#1 160314345#2 24634414#2 24634416 315358253#1 315358253#2 402600768#0 402600768#1 51857517#0 51857517#0.33 51857517#1 51857518#1 32978638#0
" />
<route id="11_2_2" edges="
128361109#1 128361109#3 128361109#4 201238730 176550249#0 176550249#1 176550249#2 138300620#0 -24634510#5 -24634510#0 201238724 -201238718#0 -315392062#4 -24693977#1 -24693977#0 -32999434#1 32999110#0 402600768#0 402600768#1 51857517#0 51857517#0.33 51857517#1 51857518#1 32978638#0
" />
<route id="11_2_3" edges="
128361109#1 128361109#3 128361109#4 201238730 176550249#0 176550249#1 176550249#2 176550249#3 176550249#4 201201950#0 -24634411 -160314345#0 -315392062#4 -24693977#1 -24693977#0 -32999434#1 32999110#0 402600768#0 402600768#1 51857517#0 51857517#0.33 51857517#1 51857518#1 32978638#0
" />
<route id="11_3_0" edges="
128361109#1 128361109#3 128361109#4 201238730 176550249#0 176550249#1 176550249#2 176550249#3 176550249#4 201201950#0 -24634411 160314345#1 160314345#2 160314345#3 -24634417 386687239#1 202092676#0 386687235
" />
<route id="11_3_1" edges="
128361109#1 128361109#3 128361109#4 201238730 176550249#0 176550249#1 176550249#2 176550249#3 176550249#4 201201950#0 201201950#1 201201950#2 201201950#3 201201950#4 386687239#0 386687239#1 202092676#0 386687235
" />
<route id="11_3_2" edges="
128361109#1 128361109#3 128361109#4 201238730 176550249#0 176550249#1 176550249#2 176550249#3 176550249#4 201201950#0 -24634411 160314345#1 -24634413#0 201201950#3 201201950#4 386687239#0 386687239#1 202092676#0 386687235
" />
<route id="11_3_3" edges="
128361109#1 128361109#3 128361109#4 201238730 176550249#0 176550249#1 176550249#2 176550249#3 176550249#4 201201950#0 201201950#1 201201950#2 24634413#0 160314345#2 160314345#3 -24634417 386687239#1 202092676#0 386687235
" />
<route id="11_4_0" edges="
128361109#1 128361109#3 128361109#4 201238719#0 170018165#0 -224892361#8 -224892361#6 224892339#0 315358255#0 -612075153#1 -612075153#0 399835085#0 399835085#1
" />
<route id="11_4_1" edges="
128361109#1 128361109#3 128361109#4 201238719#0 170018165#0 -224892361#8 -224892361#6 -224892361#2 -224892361#1 286646456#1 315358255#0 -612075153#1 -612075153#0 399835085#0 399835085#1
" />
<route id="11_4_2" edges="
128361109#1 128361109#3 128361109#4 201238719#0 170018165#0 -224892361#8 -224892361#6 224892339#0 -286646456#2 224892361#1 224892361#2 224892361#3 224892361#7 170018165#1 170018165#2 170018165#2.175 -224251776#1 224251774#0 224251774#1 286646456#0 286646456#1 315358255#0 -612075153#1 -612075153#0 399835085#0 399835085#1
" />
<route id="11_4_3" edges="
128361109#1 128361109#3 128361109#4 201238719#0 170018165#0 170018165#1 170018165#2 170018165#2.175 -224251776#1 224251774#0 224251774#1 286646456#0 286646456#1 315358255#0 -612075153#1 -612075153#0 399835085#0 399835085#1
" />
<route id="11_13_0" edges="
128361109#1 128361109#3 128361109#4 201238719#0 170018165#0 -224892361#8 -224892361#6 224892339#0 315358255#0 -315358257#2 -315358257#0.26 25117391#0 25117391#2 201950263#0 26677542#0 26677542#1 201950250#0 201950250#1 201950250#2 40888351#0 40888354#0
" />
<route id="11_13_1" edges="
128361109#1 128361109#3 128361109#4 201238719#0 170018165#0 -224892361#8 -224892361#6 224892339#0 315358255#0 -315358257#2 -315358257#0.26 25117391#0 25117391#2 201950263#0 26677542#0 26677542#1 201950250#0 201950250#1 -26677539 26677416#4 -40888351#2 40888354#0
" />
<route id="11_13_2" edges="
128361109#1 128361109#3 128361109#4 201238719#0 170018165#0 -224892361#8 -224892361#6 224892339#0 315358255#0 -315358257#2 -315358257#0.26 25117391#0 25117391#2 201950263#0 26677542#0 -26677417#1 -26677417#0 26677416#2 26677416#3 26677416#4 -40888351#2 40888354#0
" />
<route id="11_13_3" edges="
128361109#1 128361109#3 128361109#4 201238719#0 170018165#0 -224892361#8 -224892361#6 -224892361#2 -224892361#1 286646456#1 315358255#0 -315358257#2 -315358257#0.26 25117391#0 25117391#2 201950263#0 26677542#0 26677542#1 201950250#0 201950250#1 201950250#2 40888351#0 40888354#0
" />
<route id="12_10_0" edges="
315358242#0 315358242#1 315358242#2 315358242#3 315358251#1 386687242 23166741#0 23166741#2 23166741#5 201201953#0 201201953#2 201201953#4 201201953#10 201201953#12 176550246 201238719#0 170018165#0 170018165#1 170018165#2 170018165#2.175 306240162#0
" />
<route id="12_10_1" edges="
315358242#0 315358242#1 315358242#2 315358242#3 315358251#1 386687242 23166741#0 23166741#2 23166741#5 201201953#0 40888360#0 22724699#2 173203413#0 201201953#4 201201953#10 201201953#12 176550246 201238719#0 170018165#0 170018165#1 170018165#2 170018165#2.175 306240162#0
" />
<route id="12_10_2" edges="
315358242#0 315358242#1 315358242#2 -201950247#8 -201950247#7 -201950247#6 -201950247#5 -201950247#4 53396619#5 53396619#6 26677216#3 23166741#5 201201953#0 201201953#2 201201953#4 201201953#10 201201953#12 176550246 201238719#0 170018165#0 170018165#1 170018165#2 170018165#2.175 306240162#0
" />
<route id="12_10_3" edges="
315358242#0 315358242#1 315358242#2 315358242#3 315358251#1 386687242 23166741#0 23166741#2 23166741#5 201201945#0 201201945#1 201201945#2 22724699#0 22724699#2 173203413#0 201201953#4 201201953#10 201201953#12 176550246 201238719#0 170018165#0 170018165#1 170018165#2 170018165#2.175 306240162#0
" />
<route id="13_4_0" edges="
-447569998#1 -447569997#0 129379918#0 -40888351#6 -26677416#7 26677539 -201950250#1 -201950250#0 -26677542#1 -26677542#0 -201950263#6 -25117391#2 -25117391#1 315358257#0 315358257#0.43 -612075153#1 -612075153#0 399835085#0 399835085#1
" />
<route id="13_4_1" edges="
-447569998#1 -447569997#0 129379918#0 -40888351#6 -40888351#2 -40888351#0 -201950250#2 -201950250#1 -201950250#0 -26677542#1 -26677542#0 -201950263#6 -25117391#2 -25117391#1 315358257#0 315358257#0.43 -612075153#1 -612075153#0 399835085#0 399835085#1
" />
<route id="13_4_2" edges="